page_author
pageborder
page_columns
paged
page_end_date
page_id
pageid
pageId
pageID
pagename
pageno
pagenow
pagenum
pagenumber
pageop
page_options
pageOwner
pages
pagesize
pageSize
pagestart
page_start_date
page_status
pagestyle
pagetext
pagetext_html
pagetext_simp
pagetitle
pageTitle
pageType
pagination
pah
pai
paid
paID
pais
paj
pak
pal
palette
pam
pan
panel
pao
pap
paper
paperclip
paporchap
paq
par
para
param
param1
param2
parameter
parameters
params
paranoia
parent
Parent
parentemail
parentfieldid
parent_id
parentid
parentId
parentID
ParentID
ParentPage
parentqueue
parenttab
PaRes
parid
parked
parseSchema
parseurl
part
partial
partition
partner
partner_id
partner_income
pas
pass
pasS
PASS
pass1
pass2
passd
passed_captcha
passenger
passf
passgen
pass_hash
passive
passkey
passlength
passold
passphrase
passthru_dowhat
passthrumacadd
passthrumacaddusername
passw
passwd
passwd1
passwd2
passwdList
password
passWord
Password
PASSWORD
password1
password2
password3
passwordc
password_conf
passwordconfirm
passwordConfirm
passwordconfirm_md5
password_current
passwordfld
passwordfld1
passwordfld2
PasswordForm
passwordgenmethod
passwordkey
password_md5
password_new
passwordnotifymethod
password_override
PasswordResetForm
passwords
passwrd
passwrd1
passwrd2
past
paste
pat
patch
path
path2news
pathf
paths
pattern
pau
pause
pav
paw
pax
pay
Pay
PayerID
PayerStatus
payload
payment
paymentAmount
paymentData
paymentId
payments
paymentStatus
paymentType
paypal
paypalListener
PayPalOrderConfirmation
paz
pb
pba
pbb
pbc
pbd
pbe
pbf
pbg
pbh
pbi
pbj
pbk
pbl
pbm
pbn
pbo
pbp
pbq
pbr
pbs
pbt
pbu
pbv
pbw
pbx
pby
pbz
pc
pca
pcb
pcc
pcd
pce
pcf
pcg
pch
pci
pcid
pcj
pck
pcl
pcm
pcn
pco
pcp
pcq
pcr
pcs
pct
pcu
pcv
pcw
pcx
pcy
pcz
pd
pda
p_dateline
pdb
pdc
pdd
pde
pdel_reason
pdel_userid
pdel_username
pDesc
pdf
pdg
pdh
pdi
pdj
pdk
pdl
pdm
pdn
pdnpipe
pdo
pdocon
pdodsn
pdopass
pdouser
pdp
pdq
pdr
pds
pdt
pdu
pdv
pdw
pdx
pdy
pdz
pe
pea
peace
peb
pec
ped
pee
peerstats
pef
peg
peh
pei
pej
pek
pel
pem
pen
pending
peo
pep
peq
per
percent
perform
period
periodidx
periodo
perm
permalink
permalink_structure
permanent
permerror
permission
permission_custom_error
permissions
permission_showtopic
perms
Perms
perms0
perms1
perms2
perms3
perms4
perms5
perms6
perms7
perms8
perms9
permStatus
_per_page
per_page
perpage
perPage
persist
persistcommonwireless
persistent
person
Person
personal
personality
personId
peruserbw
pes
pet
peu
pev
pew
pex
pey
pez
pf
pfa
pfb
pfc
pf_content
pfd
pfe
pff
pfg
pfh
pfi
pfj
pfk
pfl
pfm
pfn
pfo
pfp
pfq
pfr
pfrom
pfs
pft
pftext
pf_topic_format
pfu
pfv
pfw
pfx
pfy
pfz
pg
pga
pgb
pgc
pgd
pgdb
pge
pgf
pgg
pgh
pgi
pgj
pgk
pgl
pgm
pgn
pg_net_amount
pgo
pgp
pg_payment_id
pgport
pgq
pgr
pg_result
pgs
pg_salt
pg_sig
pgsql
pgsqlcon
pgt
pgtId
pgtIou
pgu
pguser
pgv
pgw
pgx
pgy
pgz
ph
pha
phase
phb
phc
phd
phe
phf
phg
phh
phi
phj
phk
phl
phm
phn
pho
phone
PHONE
phone1
phone2
phone3
phoneNr
phonenumber
photo
photo_description
photoid
photo_src
php
phpbb
phpbbdbh
phpbbdbn
phpbbdbp
phpbbdbu
phpbbkat
phpcode
phpenabled
phperror
phpev
phpexec
phpids
phpinfo
phpini
phpMyAdmin
php_path
PHPSESSID
phpsettingid
phpsettings
phpThumbDebug
phpvarname
phpver
phq
phr
phrase
phs
pht
phu
phv
phw
phx
phy
phz
pi
pia
piasS
pib
pic
pick
pickfieldcolname
pickfieldlabel
pickfieldname
pickfieldtable
pics
pictitle
picture
pid
pID
pids
pie
pif
pig
pih
pii
pij
pik
pil
pim
pin
pin2
pin2enc
ping
ping_status
pinned
pio
pip
pipe
pipi
piq
pir
pis
pit
piu
piv
piw
pix
piy
piz
pj
pja
pjb
pjc
pjd
pje
pjf
pjg
pjh
pji
pjj
pjk
pjl
pjm
pjn
pjo
pjp
pjq
pjr
pjs
pjt
pju
pjv
pjw
pjx
pjy
pjz
pk
pka
pkb
pkc
pkd
pke
pkf
pkg
pkgrepourl
pkgs
pkh
pki
pkj
pkk
pkl
pkm
pkn
pko
pkp
pkq
pkr
pks
pkt
pku
pkv
pkw
pkx
pky
pkz
pl
pla
place
placeID
placement
placeName
plain
Plain
plaintext
plan
platform
play
player
playlist
playlistDescription
playlistTitle
plb
plc
pld
ple
plf
plg
plh
pli
plid
plj
plk
pll
plm
pln
plname
plo
plp
plq
plr
pls
plt
plu
plug
plugi_can_report
plugi_desc
plugi_file
plugi_gperm
plugin
plugins
plugi_title
plus
plusminus
plv
plw
plx
ply
plz
pm
pma
pma_charset
pma_collation_connection
pmaCookieVer
pma_db_filename_template
pma_fontsize
pMail
pma_lang
pma_mcrypt_iv
pma_server_filename_template
pma_switch_to_new
pma_table_filename_template
pmb
pmc
pmd
pme
pmf
pmg
pmh
pmi
pmid
pmj
pmk
pml
pmm
pmn
pmnotif
pmo
pmp
pmq
pmr
pms
pmsg
pmt
pmu
pmv
pmw
pmx
pmy
pmz
pn
pna
pname
pName
pnb
pnc
pnd
pne
pnf
png
pnh
pni
pnj
pnk
pnl
pnm
pnn
pno
pnp
pnq
pnr
pns
pnt
pnu
pnv
pnw
pnx
pny
pnz
po
poa
pob
poc
pod
podcastauthor
podcastexplicit
podcastkeywords
podcastsize
podcastsubtitle
podcasturl
poe
pof
pog
poh
poi
point
pointer
points
poj
pok
pol
policies
poll
poll_body
poll_clear
poll_close
poll_days
poll_delete
pollid
poll_multi
polloptions
pollOptions
pollport
pollQuestion
poll_reply_id
poll_title
pollvote
poll_vote_change
pom
pon
poo
pool
poolname
poolopts
pools
pop
pop3host
popup
popuptitle
popuptype
popupurl
poq
por
porder
port
port1
portalauth
portbc
portbl
portbw
portscanner
pos
posi
position
position_aport
position_gogo
position_google
position_livesearch
position_on_page
position_rambler
position_yahoo
position_yandex
post
Post
post1
post2
postafterlogin
postal
post_approved
post_author
postback
post_category
postcode
PostCode
PostCodeResult
post_content
post_count
postcount
postData
post_date
postdate
post_date_gmt
postdateline
posted
post_edit_reason
postedText
post_end_date
poster
poster_id
posterid
poster_ip
posteruserid
post_excerpt
post_format
postfrom
post_gmt_ts
postgroup
postgroups
posthash
post_htmlstate
posticon
posticonid
posticonpath
posticontitle
post_id
postid
postId
post_ID
post_key
post_mime_type
post_modified
post_modified_gmt
post_name
post_parent
post_password
postpoll
postRedirect
posts
postsperday
postsperpage
post_start_date
poststarttime
post_status
post_statusicon
post_statustitle
post_subject
post_text
posttext
post_time
posttime
post_title
posttitle
postto
post_type
posttype
postuser
postuserid
postusername
postvars
post_view
postvisible
pot
potentalid
potentialid
pou
pov
pow
power
pox
poy
poz
pp
ppa
ppage
pPage
pPass
pPassConf
ppb
ppc
ppd
ppdebug
ppe
ppf
ppg
pph
ppi
ppid
ppj
ppk
ppl
ppm
ppn
ppo
ppp
pppoeid
ppq
ppr
pps
ppsflag2
ppsflag3
ppsflag4
ppsfudge1
ppsport
ppsrefid
ppsselect
ppsstratum
ppt
ppu
ppv
ppw
ppx
ppy
ppz
pq
pqa
pqb
pqc
pqd
pqe
pqf
pqg
pqh
pqi
pqj
pqk
pql
pqm
pqn
pqo
pqp
pqq
pqr
pqs
pqt
pqu
pqv
pqw
pqx
pqy
pqz
pr
pra
prb
prc
prd
pre
preauthurl
precmd
predefined
pref
preference
prefetch
prefetchkey
prefix
prefixid
prefix_plain_html
prefix_rich
prefork
preg
prenom
prepare
prepopulate
preposts
prepostsproc
prereq
prescription
presence
preset
PRESET
press
pressthis
pretty
prev
preview
previewed
preview_id
preview_iframe
preview_nonce
preview_posts
previewwrite
previous
prev_page
prevpage
prf
prg
prh
pri
price
priceCurrency
price_from
prices
prices_name
prices_percent_to_basic
prices_users_group
price_to
primary
primary_blog
primaryconsole
primarymodule
principal
print
printer
print_order
printview
prio
priority
priority1
priority2
priority3
priv
privacy
private
private_key
privatekey
privid
privileges
PRIVILEGES
prj
prk
prl
prm
prn
pro
probability
probe
problem
procedure
proceed
process
processed
processing
processlist
processlogin
producer_description
producer_id
producer_name
producer_order
producer_path
product
Product
productcode
productDescription
product_id
productid
productlist
productname
products
producttype
prof
profile
Profile
ProfileField
profilefieldcategoryid
ProfileForm
profileId
profile_post_id
profiler
profiles
profileUser
profile_user_id
profile_username
profiling
prog
program
progress
progress_key
progresskey
project
Project
projectid
projectID
projection
projectionxy
projects
ProjectUserForm
promiscuous
promote
prop
properties
property
protect
protection
protmode
proto
protocol
protocomp
prov
provider
province
proxy
proxyhost
proxyhostmsg
proxyip
proxypass
proxypassword
proxyport
proxypwd
proxyurl
proxyuser
proxyusername
prp
prq
prr
prs
prt
pru
prune
pruningOptions
prv
prw
prx
pry
prz
ps
ps2pdf
psa
psb
psc
psd
pse
pseudo
psf
psg
psh
psi
psid
psj
psk
psl
psm
psn
pso
psp
psq
psr
pss
pst
psu
psubmit
psv
psw
psx
psy
psz
pt
pta
ptb
ptc
ptd
pte
ptf
ptg
pth
pti
ptID
p_title
ptj
ptk
ptl
ptm
ptn
pto
ptp
ptpid
ptq
ptr
pts
ptt
ptu
ptv
ptw
ptx
pty
ptype
ptz
pu
pua
pub
pubdate
pubkey
PUBL
public
Public
public_key
publickey
publicUpload
publish
published
publisher
publisherID
publisherName
puc
pud
pue
puf
pug
puh
pui
pUID
puj
puk
pul
pum
pun
puo
pup
puq
pur
purchaseid
purchaseorderid
puremode
purge
purgedb
purpose
purse
pus
push
put
puT
puu
puv
puw
pux
puy
puz
pv
pva
pval
pvb
pvc
pvd
pve
pvf
pvg
pvh
pvi
pvj
pvk
pvl
pvm
pvn
pvo
pvp
pvq
pvr
pvs
pvt
pvu
pvv
pvw
pvx
pvy
pvz
pw
pW
pw2
pwa
pwb
pwc
pwd
PWD
pwdwso
pwe
pwf
pwg
pwh
pwi
pwj
pwk
pwl
pwm
pwn
pwo
pwp
pwq
pwr
pws
pwt
pwu
pwv
pww
pwx
pwy
pwz
px
pxa
pxb
pxc
pxd
pxe
pxf
pxg
pxh
pxi
pxj
pxk
pxl
pxm
pxn
pxo
pxp
pxq
pxr
pxs
pxt
pxu
pxv
pxw
pxx
pxy
pxz
py
pya
pyb
pyc
pyd
pye
pyf
pyg
pyh
pyi
pyj
pyk
pyl
pym
pyn
pyo
pyp
pyq
pyr
pys
pyt
pyu
pyv
pyw
pyx
pyy
pyz
pz
pza
pzb
pzc
pzd
pze
pzf
pzg
pzh
pzi
pzj
pzk
pzl
pzm
pzn
pzo
pzp
pzq
pzr
pzs
pzt
pzu
pzv
pzw
pzx
pzy
pzz
q
Q
q2
q3
qa
qaa
qab
qac
qact
qact2
qact3
qaction
qad
qae
qaf
qag
qah
qai
qaj
qak
qal
qam
qan
qao
qap
qaq
qar
qas
qat
qau
qav
qaw
qax
qay
qaz
qb
qba
qbb
qbc
qbd
qbe
qbf
qbg
qbh
qbi
qbj
qbk
qbl
qbm
qbn
qbo
qbp
qbq
qbr
qbs
qbt
qbu
qbv
qbw
qbx
qby
qbz
qc
qca
qcb
qcc
qcd
qce
qcf
qcg
qch
qci
qcj
qck
qcl
qcm
qcn
qco
qcontent
qcp
qcq
qcr
qcs
qct
qcu
qcv
qcw
qcx
qcy
qcz
qd
qda
qdb
qdc
qdd
qde
qdf
qdg
qdh
qdi
qdj
qdk
qdl
qdm
qdn
qdo
qdp
qdq
qdr
qds
qdt
qdu
qdv
qdw
qdx
qdy
qdz
qe
qea
qeb
qec
qed
qee
qef
qeg
qeh
qei
qej
qek
qel
qem
qen
qeo
qep
qeq
qer
qes
qet
qeu
qev
qew
qex
qey
qez
qf
qfa
qfb
qfc
qfd
qfe
qff
qfg
qfh
qfi
qfj
qfk
qfl
qfm
qfn
qfo
qfp
qfq
qfr
qfs
qft
qfu
qfv
qfw
qfx
qfy
qfz
qg
qga
qgb
qgc
qgd
qG_del
qge
qgf
qgg
qgh
qgi
qG_ins
qgj
qgk
qgl
qgm
qgn
qG_nl
qgo
qgp
qgq
qgr
qG_remnl
qgs
qgt
qgu
qG_up
qgv
qgw
qgx
qgy
qgz
qh
qha
qhb
qhc
qhd
qhe
qhf
qhg
qhh
qhi
qhj
qhk
qhl
qhm
qhn
qho
qhp
qhq
qhr
qhs
qht
qhu
qhv
qhw
qhx
qhy
qhz
qi
qia
qib
qic
qid
qie
qif
qig
qih
qii
qij
qik
qil
qim
qin
qindsub
qio
qip
qiq
qir
qis
qit
qiu
qiv
qiw
qiwi_payment_options
qix
qiy
qiz
qj
qja
qjb
qjc
qjd
qje
qjf
qjg
qjh
qji
qjj
qjk
qjl
qjm
qjn
qjo
qjp
qjq
qjr
qjs
qjt
qju
qjv
qjw
qjx
qjy
qjz
qk
qka
qkb
qkc
qkd
qke
qkf
qkg
qkh
qki
qkj
qkk
qkl
qkm
qkn
qko
qkp
qkq
qkr
qks
qkt
qku
qkv
qkw
qkx
qky
qkz
ql
qla
qlb
qlc
qld
qle
qlf
qlg
qlh
qli
qlj
qlk
qll
qlm
qln
qlo
qlp
qlq
qlr
qls
qlt
qlu
qlv
qlw
qlx
qly
qlz
qm
qma
qmb
qmc
qmd
qme
qmf
qmg
qmh
qmi
qmj
qmk
qml
qmm
qmn
qmo
qmp
qmq
qmr
qmrefresh
qms
qmt
qmu
qmv
qmw
qmx
qmy
qmz
qn
qna
qnb
qnc
qnd
qne
qnf
qng
qnh
qni
qnj
qnk
qnl
qnm
qnn
qno
qnp
qnq
qnr
qns
qnt
qnu
qnv
qnw
qnx
qny
qnz
qo
qoa
qob
qoc
qod
qoe
qof
qog
qoh
qoi
qoj
qok
qol
qom
qon
qoo
qop
qoq
qor
qos
qot
qou
qov
qow
qox
qoy
qoz
qp
qpa
qpb
qpc
qpd
qpe
qpf
qpg
qph
qpi
qpj
qpk
qpl
qpm
qpn
qpo
qpp
qpq
qpr
qps
qpt
qpu
qpv
qpw
qpx
qpy
qpz
qq
qqa
qqb
qqc
qqd
qqe
qqf
qqfafile
qqfile
qqg
qqh
qqi
qqj
qqk
qql
qqm
qqn
qqo
qqp
qqq
qqr
qqs
qqt
qqu
qqv
qqw
qqx
qqy
qqz
qr
qra
qrb
qrc
qrd
qre
qrf
qrg
qrh
qri
qrj
qrk
qrl
qrm
qrn
qro
qrp
qrq
qrr
qrs
qrt
qru
qrv
qrw
qrx
qry
qrz
qs
qsa
qsb
qsc
qsd
qse
qsf
qsg
qsh
qsi
qsj
qsk
qsl
qsm
qsn
qso
qsp
qsq
qsr
qss
qst
qstring
qsu
qsubject
qsv
qsw
qsx
qsy
qsz
qt
qta
qtb
qtc
qtd
qte
qtf
qtg
qth
qti
qtj
qtk
qtl
qtm
qtn
qto
qtp
qtq
qtr
qtranslateincompatiblemessage
qts
qtt
qtu
qtv
qtw
qtx
qty
qtype
qtz
qu
qua
quality
quantity
quantityBackup
qub
quc
qud
que
query
querY
queryPart
querysql
queryString
querytype
queryType
QUERY_VAR_MODULE
quest
question
questionid
questions
queue
queued
quf
qug
quh
qui
quick
quicklogin
quickmanager
quickmanagerclose
quickmanagertv
quickmod
quickpress_post_ID
quick_reg
quick_reply
quickreply
quickReturnID
quiet
quietlogin
quirks
quitchk
quizid
quj
quk
qul
qum
qun
qunfatmpname
quo
quota
quote
quoteid
quotes
quote_username
qup
quq
qur
qus
qut
quu
quv
quw
qux
quy
quz
qv
qva
qvb
qvc
qvd
qve
qvf
qvg
qvh
qvi
qvj
qvk
qvl
qvm
qvn
qvo
qvp
qvq
qvr
qvs
qvt
qvu
qvv
qvw
qvx
qvy
qvz
qw
qwa
qwb
qwc
qwd
qwe
qwf
qwg
qwh
qwi
qwj
qwk
qwl
qwm
qwn
qwo
qwp
qwq
qwr
qws
qwt
qwu
qwv
qww
qwx
qwy
qwz
qx
qxa
qxb
qxc
qxd
qxe
qxf
qxg
qxh
qxi
qxj
qxk
qxl
qxm
qxn
qxo
qxp
qxq
qxr
qxs
qxt
qxu
qxv
qxw
qxx
qxy
qxz
qy
qya
qyb
qyc
qyd
qye
qyf
qyg
qyh
qyi
qyj
qyk
qyl
qym
qyn
qyo
qyp
qyq
qyr
qys
qyt
qyu
qyv
qyw
qyx
qyy
qyz
qz
qza
qzb
qzc
qzd
qze
qzf
qzg
qzh
qzi
qzj
qzk
qzl
qzm
qzn
qzo
qzp
qzq
qzr
qzs
qzt
qzu
qzv
qzw
qzx
qzy
qzz
r
R
r00t
r1
r2
r3
r4
ra
raa
rab
rac
race
rad
radio
radiobutton
radius
radiusacctport
radiusenable
radiusip
radiusip2
radiusip3
radiusip4
radiusissueips
radiuskey
radiuskey2
radiuskey3
radiuskey4
radiusnasid
radiusport
radiusport2
radiusport3
radiusport4
radiussecenable
radiussecret
radiussecret2
radiusserver
radiusserver2
radiusserver2acctport
radiusserver2port
radiusserveracctport
radiusserverport
radiusvendor
radns1
radns2
radomainsearchlist
radPostPage
rae
raf
rag
rage
ragename
rah
rai
rainterface
raj
rak
ral
ram
ramode
ran
rand
randkey
random
range
rang_id
rank
ranking
rao
rap
rapriority
raq
rar
ras
rasamednsasdhcp6
rat
rate
rating
ratings
ratio
rau
rav
raw
rawAuthMessage
rawfilter
rax
ray
raz
rb
rba
rback
rbb
rbc
rbd
rbe
rbf
rbg
rbh
rbi
rbj
rbk
rbl
rbm
rbn
rbo
rbp
rbq
rbr
rbs
rbt
rbu
rbv
rbw
rbx
rby
rbz
rc
RC
rca
rcb
rcc
rcd
rce
rcf
rcg
rch
rci
rcj
rck
rcl
rcm
rcn
rco
rcp
rcq
rcr
rcs
rct
rcu
rcv
rcw
rcx
rcy
rcz
rd
rda
rdata
rdb
rdc
rdd
rde
rdf
rdg
rdh
rdi
rdj
rdk
rdl
rdm
rdn
rdo
rdp
rdq
rdr
rds
rdt
rdu
rdv
rdw
rdx
rdy
rdz
re
rea
read
readannouncement
reading
readme
readonly
readregname
ready
realm
realname
realName
realpath
reason
reasontype
reauth
reauthenticate
reauthenticateacct
reb
reboot
reborrowLimit
rebroadcast
rebuild
rec
recache
recapBy
recaptcha
receipient
receipt
receivepm
receiver
recent
RECHECK
recheckqueue
recherche
recip
recipient
recipientAmount
recipientCurrency
recipients
recommend
reconstruct
record
recordcount
recordid
recordID
RecordingDuration
RecordingUrl
recordNum
recordOffset
records
recordsArray
recordSep
recordType
recount
recover
recovered
recoveryPassword
recreate
recsEachPage
recurrence
recurring
recurringtype
recurse
recursive
recvDate
red
reddi
redfi
redir
redirect
redirect_hits
redirection
redirect_on
redirect_to
redirectto
redirect_uri
redirecturi
redirectUri
redirect_url
redirecturl
redir_uri
redir_url
redirurl
ReduxFrameworkPlugin
ree
ref
reference
referer
referer2
referid
referral
referredby
referrer
referrername
refid
refkod
reflectiontimeout
refresh
refreshinterval
refuid
refund
refurl
refuse
reg
regcountry
regDate
regdhcp
regdhcpstatic
regdomain
regenerate
regex
regexp
regid
reginput
region
register
Register
registered
RegisterForm
registration
RegistrationForm
registre
reglocation
regname
regSubmit
regtype
regularity
regval
reh
rei
reinstall
rej
rek
rel
rela
related
relatedmodule
relation
relations
relationship
relationships
relative
relay
relayd
RelayState
release
releasedate
relevance
relmodule
reload
reloadfilter
relpathinfo
rem
remail
remark
remarks
remdays
remember
remember_me
rememberme
rememberMe
remhrs
reminder
remipp
remmin
remot
remote
remotefile
remoteip
remotekey
remotescan
remoteserver
remoteserver2
remoteserver3
remove
removeall
removeAll
removefields
removeFines
remove_folder
removeheader
removeid
removeID
removemp
removeOldVisits
removep
removesess
remove_store
removeVariables
removewidget
rempool
ren
rename
renameext
renamefile
renamefileto
rename_folder
renamefolder
render
renderfields
renderforms
renderimages
renderlinks
renewmaillist
renf
rennew
renold
rensub
reo
reopen
reorder
rep
repair
repass
repassword
repeat
repeatable
repeatMonth
rep_id
replace
replacement_content
_replacement_key
replaceWith
replayMode
replies
reply
replylink
replyto
replytocom
repo
REPO
repopulate
report
reportContentType
reportfun
reportid
reportname
reports
reportsent
reports_path
reports_to_db
reports_to_fs
reportType
reportView
repositoryurl
reppower
reputation
reputation_base
reputationdisplay
reputation_green
reputationlevelid
reput_manage
repwd
req
req128
reqFor
reqid
reqType
request
requestcompression
requestid
requestKey
requests
requireAgreement
required
requiredData
required_input
rer
res
rescan
rescanerrors
rescanwifi
resend
resent
reserveAlert
reserved
reserveID
reserveItemID
reserveLimit
reset
Reset
RESET
reset_hash
resetheader
reset_installs
resetkey
resetlog
resetlogs
resetpass
resetpasskey
resetpassword
resetPassword
ResetRRD
resettext
resetVoteCount
resetwidgets
reshares
residence
resize
resizefile
resizetype
resolution
resolve
resource
resourcefile
resources
ResourceUploadForm
response
responsecompression
responsive
respuesta
restart
restartchk
restock
restore
restorearea
restorefile
restrict
resubmit
result
Result
RESULT
resultid
resultmatch
results
resultXML
resume
resync
ret
retries
retry
returl
_return
return
returnaction
returnID
returnpage
returnsession
return_to
returnto
returnurl
returnUrl
returnURL
ReturnUrl
reu
rev
reveal
reverse
reverseacct
revert
review
Review
revision
revoke
revokeall
rew
rewrite
rex
rey
rez
rf
rfa
rfb
rfc
rfc959workaround
rfd
rfe
rff
rfg
rfh
rfi
rfile
rfiletxt
rfj
rfk
rfl
rfm
rfn
rfo
rfp
rfq
rfr
rfs
rft
rfu
rfv
rfw
rfx
rfy
rfz
rg
rga
rgb
rgc
rgd
rge
rgf
rgg
rgh
rgi
rgj
rgk
rgl
rgm
rgn
rgo
rgp
rgq
rgr
rgs
rgt
rgu
rgv
rgw
rgx
rgy
rgz
rh
rha
rhb
rhc
rhd
rhe
rhf
rhg
rhh
rhi
rhj
rhk
rhl
rhm
rhn
rho
rhp
rhq
rhr
rhs
rht
rhu
rhv
rhw
rhx
rhy
rhz
ri
ria
rib
ric
rich_editing
richtext
rid
rID
rie
rif
rig
right
right_id
rights
rih
rii
rij
rik
ril
rim
rin
rio
rip
riq
rir
ris
rit
riu
riv
riw
rix
riy
riz
rj
rja
rjb
rjc
rjd
rje
rjf
rjg
rjh
rji
rjj
rjk
rjl
rjm
rjn
rjo
rjp
rjq
rjr
rjs
rjt
rju
rjv
rjw
rjx
rjy
rjz
rk
rka
rkb
rkc
rkd
rke
rkf
rkg
rkh
rki
rkj
rkk
rkl
rkm
rkn
rko
rkp
rkq
rkr
rks
rkt
rku
rkv
rkw
rkx
rky
rkz
rl
rla
rlb
rlc
rld
rle
rlf
rlg
rlh
rli
rlj
rlk
rll
rlm
rln
rlo
rlp
rlq
rlr
rls
rlt
rlu
rlv
rlw
rlx
rly
rlz
rm
rM
rma
rmb
rmc
rmd
rmdir
rme
rmf
rmFiles
rmg
rmh
rmi
rmid
rminstall
rmj
rmk
rml
rmm
rmn
rmo
rmp
rmq
rmr
rms
rmt
rmu
rmv
rmver
rmw
rmx
rmy
rmz
rn
rN
rna
rname
rnb
rnc
rnd
rne
rnf
rng
rnh
rni
rnj
rnk
rnl
rnm
rnn
rno
rnp
rnq
rnr
rns
rnt
rnu
rnv
rnw
rnx
rny
rnz
ro
roa
rob
robotsnew
roc
rocommunity
rod
roe
rof
rog
roh
roi
roj
rok
rol
role
Role
roleid
rolename
roles
rollback
rollbits
rom
ROMN
ron
roo
room
root
root_level
rootpath
rop
roq
ror
ros
rot
rotate
rotatefile
rou
round
route
routeid
routes
routines
rov
row
rowid
rowId
rownum
rownumber
rows
rowspage
rox
roy
roz
rp
rpa
rpassword
rpb
rpc
rpd
rpe
rpf
rpg
rph
rpi
rpj
rpk
rp_key
rpl
rpm
rpn
rpo
rport
rpp
rpq
rpr
rps
rpt
rpu
rpv
rpw
rpx
rpy
rpz
rq
rqa
rqb
rqc
rqd
rqe
rqf
rqg
rqh
rqi
rqj
rqk
rql
rqm
rqn
rqo
rqp
rqq
rqr
rqs
rqt
rqu
rqv
rqw
rqx
rqy
rqz
rr
rra
rrb
rrc
rrd
rrdbackup
rre
rrf
rrg
rrh
rri
rrj
rrk
rrl
rrm
rrn
rro
rrp
rrq
rrr
rrs
rrt
rru
rrule
rrv
rrw
rrx
rry
rrz
rs
rsa
rsargs
rsb
rsc
rsd
rse
rsf
rsg
rsh
rsi
rsj
rsk
rsl
rsm
rsn
rso
rsp
rsq
rsr
rss
rssfeed
rssmaxitems
rssurl
rsswidgetheight
rsswidgettextlength
rst
rstarget1
rstarget2
rstarget3
rstarget4
rsu
rsv
rsw
rsx
rsy
rsz
rt
rta
rtb
rtc
rtd
rte
rtf
rtg
rth
rti
rtj
rtk
rtl
rtm
rtn
rto
rtp
rtq
rtr
rts
rtt
rtu
rtv
rtw
rtx
rty
rtz
ru
rua
rub
ruc
rud
rue
ruf
rug
ruh
rui
ruj
ruk
rul
rule
ruledef
ruledefgroup
ruleid
rules
ruletype
rum
run
runcmd
runer
runid
runQuery
runsnippet
runState
runtests
ruo
rup
ruq
rur
rurl
rus
rut
ruu
ruv
ruw
rux
ruy
ruz
rv
rva
rvb
rvc
rvd
rve
rvf
rvg
rvh
rvi
rvj
rvk
rvl
rvm
rvn
rvo
rvp
rvq
rvr
rvs
rvt
rvu
rvv
rvw
rvx
rvy
rvz
rw
rwa
rwb
rwc
rwcommunity
rwd
rwe
rwenable
rwf
rwg
rwh
rwi
rwj
rwk
rwl
rwm
rwn
rwo
rwp
rwq
rwr
rws
rwt
rwu
rwv
rww
rwx
rwy
rwz
rx
rxa
rxantenna
rxb
rxc
rxd
rxe
rxf
rxg
rxh
rxi
rxj
rxk
rxl
rxm
rxn
rxo
rxp
rxq
rxr
rxs
rxt
rxu
rxv
rxw
rxx
rxy
rxz
ry
rya
ryb
ryc
ryd
rye
ryf
ryg
ryh
ryi
ryj
ryk
ryl
rym
ryn
ryo
ryp
ryq
ryr
rys
ryt
ryu
ryv
ryw
ryx
ryy
ryz
rz
rza
rzb
rzc
rzd
rze
rzf
rzg
rzh
rzi
rzj
rzk
rzl
rzm
rzn
rzo
rzp
rzq
rzr
rzs
rzt
rzu
rzv
rzw
rzx
rzy
rzz
s
s3bucket
s3key
sa
saa
sab
sabapikeytype
sabsetting
sac
saction
sad
sae
saf
safe
safecss
safefile
safemodz
sag
sah
sai
saj
sak
sal
Salads
saleprice
sales_order_begin_date
sales_order_end_date
sales_order_grouping
sales_order_show_list_items
salesrank
saller_id
salt
salutation
sam
same
sameall
samemix
SAMLRequest
SAMLResponse
sample
sampledata
san
sandbox
Sandwiches
sanitized_widget_setting
sao
sap
saq
sar
sas
sat
sau
sav
save
Save
_saveandclosedok_x
saveandclosedok_x
saveandnext
saveasdraft
saveauthors
saveclose
_saveclosedok_x
saveclose_x
saveclose_y
save_con
saveconf
savecopy
saved
saveData
_savedoknew_x
_savedokview_x
_savedok_x
savedok_x
savedraft
saveField
savefile
savefilename
savefilenameurl
savefolder
savefolderurl
savegroup
savehostid
saveid
SaveInSent
saveKardexes
saveLogs
savemode
savemsg
saveNback
saveNclose
saveNcreate
saveNedit
saveoptions
savePath
savepms
savesettings
savetest
saveToFile
SaveToFile
savewidget
savewidgets
saveZ
savmode
saw
sax
say
saz
sb
sba
sbb
sbc
sbd
sbe
sbf
sbg
sbh
sbi
sbj
sbjct
sbk
sbl
sbm
sbn
sbo
sbp
sbq
sbr
sbs
sbt
sbu
sbv
sbw
sbx
sby
sbz
sc
sca
scale
scalepoints
scalingup
scan
ScanStructure
ScanStructurePostSettings
scb
scc
scd
scdir
sce
scenario
scene
scf
scg
sch
sched
schedule
schedule0
scheduled
schema
scheme
school
schooldatex
sci
scid
scj
sck
scl
scm
scn
sco
sColumns
scope
score
scores
scp
scq
scr
screen
screen_id
script
scripts
scriptsaction
scrollto
scrolltothis
scrubnodf
scrubrnid
scs
sct
scu
scv
scw
scx
scy
scz
_sd
sd
sda
sday
sdb
sdc
sdd
sde
sdf
sdg
sdh
sdi
sdj
sdk
sdl
sdm
sdn
sdo
sdp
sdq
sdr
sds
sdt
sdu
sdv
sdw
sdx
sdy
sdz
se
sea
searcc
search
Search
searchable
searchaction
searchadvcat
searchadvgroups
searchadvposter
searchadvr
searchadvsizefrom
searchadvsizeto
searchbox
searchby
searchClause
searchClause2
search_field
searchfield
searchField
SearchFiles
SearchFilesPostSettings
SearchFiles_RemoveGroupsFile
SearchFiles_SearchOnAllHosts
searchFor
SearchForm
searchid
searchId
searchin
searchip
searchKey
searchlabel
searchName
searchOper
searchQuery
searchstring
searchString
searchterm
searchTerm
searchtext
searchText
searchtype
searchType
SearchUrl
searchuser
searchUsername
searchval
season
seb
sec
seC
sEcho
seclev_submit
second
secret
secretKey
secs
sect
section
sectionid
sections
secu
secure
SECURE_AUTH_COOKIE
securesubmit
security
SecurityKey
securityscanner
securityToken
sed
sedir
see
seed
sef
seg
segment
seh
sei
sej
sek
sel
sel_city
sel_city_area
selCountry
selday
sele
select
selectall
selectAmount
selectcategory
selected
selectedDoc
selected_language
selectedmodule
selected_posts
selectedTable
selection
selectlist
selectop
selector
select_order
selectvalues
sellernick
selmonth
selyear
sem
sen
send
sendactivation
send_approve
send_as_fascicle
sendemail
sender
senderEmail
send_exchange
sendfile
send_immediately
sendit
sendmail
send_message
sendmethod
sendmsg
send_new_password
send_password
sendpassword
send_private_message
send_prove_pays
send_prove_trans
sendtime
sendto
sendTo
send_user_data
senha
senm
sent
sentence
sentitems
sent_message
seo
seo_characteristic_catalog_aport
seo_characteristic_catalog_dmoz
seo_characteristic_catalog_mail
seo_characteristic_catalog_rambler
seo_characteristic_catalog_yandex
seo_characteristic_counter_hotlog
seo_characteristic_counter_liveinternet
seo_characteristic_counter_mail
seo_characteristic_counter_rambler
seo_characteristic_counter_spylog
seo_characteristic_date_time
seo_characteristic_id
seo_characteristic_indexed_aport
seo_characteristic_indexed_google
seo_characteristic_indexed_msn
seo_characteristic_indexed_rambler
seo_characteristic_indexed_yahoo
seo_characteristic_indexed_yandex
seo_characteristic_links_google
seo_characteristic_links_msn
seo_characteristic_links_yahoo
seo_characteristic_links_yandex
seo_characteristic_pr
seo_characteristic_yc
seo_characteristic_yc_rubric
seo_position_search_query_aport
seo_position_search_query_date_time
seo_position_search_query_gogo
seo_position_search_query_google
seo_position_search_query_id
seo_position_search_query_livesearch
seo_position_search_query_rambler
seo_position_search_query_yahoo
seo_position_search_query_yandex
seo_search_query_id
seo_search_query_value
seourl
sep
separate
separator
septext
seq
seqnum
seqNumber
sequence
ser
serdir
serial
serialID
serialize
serializeddisplay
serializedprofile
serializeduser
serialport
serialspeed
serie
series
seriesTitle
server
serveR
servercn
serverid
serverId
ServerInfo
ServerInfoPostSettings
serverip
servername
servers
serversdisabled
servertype
serverurl
service
Service
service_id
serviceName
services
servicestatusfilter
ses
sesc
sess
sessid
sessidpass
session
sessionhash
session_id
sessionid
sessionId
sessions
sesskey
set
set_author_name
set_author_url
setdefault
setDefault
set_emo_dir
set_hide_from_list
setID
set_image_dir
set_is_default
set_key
setlang
setlanguage
setMetrics
set_minify
set_name
setname
setoption
set_output_format
set_parent_id
set_permissions
set_permissions_all
setPublic
setrw
settags
setting
Setting
settings
Settings
settingset
SettingsForm
settype
setup
setupid
setUserAgent
setype
seu
sev
severity
sew
sex
sey
sez
sf
sfa
sfb
sfc
sfd
sfe
sff
sfg
sfh
sfi
sfilename
sfilter
sfj
sfk
sfl
sfldr
sfm
sfn
sfname
sfo
sfp
sfq
sfr
sfs
sft
sfu
sfv
sfw
sfx
sfy
sfz
sg
sga
sgb
sgc
sgd
sge
sgf
sgg
sgh
sgi
sgj
sgk
sgl
sgm
sgn
sgo
sgp
sgq
sgr
sgs
sgt
sgu
sgv
sgw
sgx
sgy
sgz
sh
sh3
sh311
sha
sha1
shadow
share
shared
sharednet
ShareForm
shareType
shareWith
sharing
shb
shc
shd
she
shell
shf
shg
shh
shi
ship
shipping
shiptobilling
SHIPTOCITY
SHIPTOCOUNTRY
SHIPTOSTATE
SHIPTOSTREET
SHIPTOSTREET2
SHIPTOZIP
shj
shk
shl
shm
shn
sho
shop
SHOPCOMPARE
shop_coupon_text
shop_discount_id
shop_eitem_id
shop_group_id
shop_id
shop_item_id
shop_list_of_prices_cml_id
shop_order_status_id
shopping
shop_producers_list_account
shop_producers_list_address
shop_producers_list_bank_address
shop_producers_list_bank_name
shop_producers_list_bik
shop_producers_list_corr_account
shop_producers_list_email
shop_producers_list_fax
shop_producers_list_inn
shop_producers_list_kpp
shop_producers_list_ogrn
shop_producers_list_okpo
shop_producers_list_okved
shop_producers_list_phone
shop_producers_list_seo_description
shop_producers_list_seo_keywords
shop_producers_list_seo_title
shop_producers_list_site
shop_shops_id
shop_system_of_pay_id
short
shortcode
shortcut
shortname
shortseq
short_text
shorturl
shout
shoutbox
show
showact
showall
showAll
showbd
showbirthday
showCheckbox
showdupes
showemail
showevent
ShowFieldTypesInDataEditView
showfiles
showFooterMessage
showforum
ShowFunctionFields
showh
_show_highlight
showinactive
showIndex
showinfo
show_ip
ShowMD5
showmessage
shown
showpage
showqueries
showreputation
showsc
showsignature
showslow
showSource
showtagfiles
showtemplate
showtext
showthumbs
showThumbs
showtopic
showUnhideDialog
showuser
showwysiwyg
shp
shq
shr
shs
sht
shu
shv
shw
shx
shy
shz
si
sia
sib
sic
sid
sID
SID
side
sidebar
sidebars
sidx
sie
sif
sig
sighasimages
sign
signature
Signature
signatureparsed
signatures
SignatureValue
signin
signout
signup
signup_for
_signup_form
signup_form_id
sih
sii
sij
sik
sil
silent
silver
sim
simpin
simpledb
sin
since
single
singleout
sio
sip
siq
sir
sis
sit
site
sitedown
site_id
siteid
siteId
sitemap
sitename
siteName
sites
sitetitle
siteurl
site_user_email
site_user_login
site_user_password
site_users_address
site_users_city
site_users_company
site_users_country
site_users_email
site_users_fax
site_users_icq
site_users_id
site_users_login
site_users_name
site_users_password
site_users_password_retry
site_users_patronymic
site_users_phone
site_users_postcode
site_users_site
site_users_surname
sitter1
sitter2
siu
siv
siw
six
siy
siz
size
sizes
sizey
sj
sja
sjb
sjc
sjd
sje
sjf
sjg
sjh
sji
sjid
sjj
sjk
sjl
sjm
sjn
sjo
sjp
sjq
sjr
sjs
sjt
sju
sjv
sjw
sjx
sjy
sjz
sk
ska
skb
skc
skd
ske
skf
skg
skh
ski
skid
skin
Skin
skinname
skinName
skip
skipANDROID
skipIOS
skiplang
skipped
skippostcount
skips
skj
skk
skl
skm
skn
sko
skp
skq
skr
sks
skt
sku
skv
skw
skx
sky
skype
skypeicon
skz
sl
sla
slb
slc
sld
sle
sleep
slf
slg
slh
sli
slid
slide
slj
slk
sll
slm
sln
slo
slogan
slot
slp
slq
slr
sls
slt
slu
slug
slv
slw
slx
sly
slz
sm
sma
SMALLER
small_image_is_use_watermark_information_group_image
small_image_is_use_watermark_information_item_image
small_image_is_use_watermark_items_catalog_image
small_image_is_use_watermark_shop_sallers_image
small_image_max_height_groups_image
small_image_max_height_information_group_image
small_image_max_height_information_item_image
small_image_max_height_items_catalog_image
small_image_max_height_shop_sallers_image
small_image_max_width_groups_image
small_image_max_width_information_group_image
small_image_max_width_information_item_image
small_image_max_width_items_catalog_image
small_image_max_width_shop_sallers_image
small_image_preserve_aspect_ratio_groups_image
small_image_preserve_aspect_ratio_information_group_image
small_image_preserve_aspect_ratio_information_item_image
small_image_preserve_aspect_ratio_items_catalog_image
small_image_preserve_aspect_ratio_shop_sallers_image
smartmonemail
smartpagebreak
SMARTY_DEBUG
smb
smc
smd
sme
smf
smfdbh
smfdbn
smfdbp
smfdbu
smg
smh
smi
smile
smiley
smj
smk
sml
smm
smn
smo
smode
smodule
smonth
smooth
smp
smq
smr
sms
smt
smtp
smtpfromaddress
smtpipaddress
smtpnotifyemailaddress
smtppassword
smtpPassword
smtpport
smtpPort
smtprelay
smtpssl
smtptls
smtpusername
smu
smv
smw
smx
smy
smz
sn
sna
sname
sName
snaplen
snapshot
snatched
snb
snc
snd
sne
snf
sng
snh
sni
snippet
snj
snk
snl
snm
snmpscanner
snn
sno
snp
snq
snr
sns
sns_type_id
snt
snu
snv
snw
snx
sny
snz
so
soa
sob
soc
SocketPoolPostSettings
SocketPool_UseKeepAlive
sod
soe
sof
sog
soh
soi
soj
sok
sol
solrsort
som
some
somestuff
something
son
soname
song
songid
soo
sop
soq
sor
sord
sorder
sort
SORT
sort2
sortable
sortby
sortBy
sort_by_field
sortdir
sortDir
sortdirection
sortfield
sortField
sorting
sort_key
sortKey
sortname
sort_order
sortorder
sortOrder
sorttable
sorttype
sos
sot
sou
sound
Soups
source
sourcego
sourceip
sourceport
sourcetracking
sov
sow
sox
soy
soz
sp
spa
spage
spam
spamcheck
spamlog_postid
spammed
spammer
span
spass
spb
spc
spd
spe
spec
specDetailInfo
special
specialchars
specialFiles
speciallogfile
specialsettings
specifiedpassword
specs
speed
spelling
spellstring
spf
SPFX
spg
sph
spi
spj
spk
spl
split
spm
spn
spo
spoiler
spoofmac
sport
spot
spots
spp
spq
spr
sps
spt
spu
spv
spw
spx
spy
spz
sq
sqa
sqb
sqc
sqconf
sqd
sqdbn
sqe
sqf
sqg
sqh
sqi
sqj
sqk
sql
sqlaction
sql_base
sqlcode
sql_count
sqldebug
sql_delimiter
sqldp
sqlf
sqlfile
sql_host
sqlhost
sqlhost1
sqlhost2
sqlhost3
sqlhost4
sqlite
sqlite2
sql_login
sqlog
sql_pass
sqlpass
sqlpass1
sqlpass2
sqlpass3
sqlpass4
sqlport
sqlport1
sqlport2
sqlport3
sqlport4
sqlportb1
sqlportb2
sqlportb3
sqlportb4
sqlquery
sqlty
sqltype
sqluser
sqluser1
sqluser2
sqluser3
sqluser4
sqlwxp
sqm
sqn
sqo
sqp
sqprt
sqpwd
sqq
sqquery
sqr
sqs
sqsrv
sqt
sqtid
squ
square
sqv
sqw
sqx
sqy
sqz
sr
sra
srb
src
srcbeginport
srcbeginposrt
srcendport
srcfmt
srch
srcmask
srcnot
srcport
srctext
srctrack
srctype
srd
sre
srf
srg
srh
sri
srj
srk
srl
srm
srn
srname
sro
srp
srq
srr
srs
srt
sru
srv
srw
srx
sry
srz
ss
ssa
ssb
ssc
ssd
sse
ssearch
sSearch
sserver
ssf
ss_format
ssg
ssh
sshdkeyonly
sshport
ssi
ssid
ssj
ssk
ssl
ssm
ssn
sso
ssp
ssq
ss_quality
ssr
sss
sst
ssu
ssv
ssw
ssx
ssy
ssz
st
sta
stack
staff
staffId
stage
stamp
standalone
standard
star
starred
stars
start
start2
startat
startbtn
startdate
startDate
startday
startdisplayingat
start_from
startIndex
startmonth
startMonth
startnum
startpga
startpool
starts
starttime
startTime
startval
startyear
stat
state
State
stateid
stateOrProvinceName
states
statetable
statetimeout
statetype
static
staticarp
station
statistics
stat_pph
stat_ppr
stats
statsgraph
status
Status
STATUS
statusicon
statusid
statusID
statustitle
statut
stay
stb
stc
std
stdDateFilter
stdDateFilterField
stderr
stdlib
std_used
ste
step
step0
step_1
step1
step1_1
step_1_1a
step1_2
step_2
step2
step_3
step3
step_4
step4
step5
step6
step7
step8
step9
stepid
StepID
step_lng
steps
stereo
stf
stg
sth
sti
stick
stickunstick
sticky
stime
stj
stk
stl
stm
stn
sto
stock
stop
stopbtn
stoppga
stoppool
stoptime
storage
storagegroup
store
StoreCategory
stories
story
storyid
stp
stq
str
strategy
stream
streamMode
street
strFormId
strHtml
strict
strictbind
strictcn
strId
strin
string
strings
string_title
stringtoh
string_url
stripeToken
strProfileData
strReferrer
struct
structure
STRUCTURE
structure_access_protocol
structure_id
strukt
sts
stt
stu
stub
student
studentidx
students
stuff
stuid
stUpload
stv
stw
stx
sty
style
styles
stylesheet
stype
stz
su
sua
sub
subacc
subact
subaction
subcanemaildomain
sub_can_post
subcat
subcategory
subconst
subdir
subdirs
subdom
subdomain
subdomain_install
subdomains
subfiles
subfolder
subform
subGenre
subid
subId
subj
subject
subjectid
subjectType
subjoin
sublogin
submail
submit
Submit
SUBMIT
submit1
Submit1
submit2
Submit2
submit3
submit4
submitAdd
submit_clear
submitcollation
submit_comment
submit_delete
submit_download
submitEmail
submit_export
submitf
submit_file
submitFilesAdminSettings
submitFilter
submithtaccess
submit_load
submit_lost
submit_mark
submitok
submitoptions
submitorderby
submit_question
submit_reg
submitReset
submitrobots
submit_save
submitted
submitThemes
submitv
submit_val
submit_x
submit_y
submode
subname
subnet
subnetv6
subop
subpage
subqcmnds
subs
subscribe
subscribed
subscribers
subscription
subscriptionid
subscriptionId
subsection
subset
SubsiteID
substep
substruc
subsubaction
subtab
subtitle
subtotal
subtype
suburb
subwdata
suc
success
sud
sue
suf
suffix
sug
suh
sui
suj
suk
sul
sum
summary
sun
sunrise
suo
sup
super
super_admin
supplierAccount
supplierContact
supplierEmail
supplierFax
supplierID
supplierName
supplierPhone
supplierPlace
support
supportfor
suppr
supprimer
suq
sur
sure
SURN
surname
survey
sus
suser
suspend
sut
suu
suv
suw
sux
suy
suz
sv
sva
svb
svc
svd
svdi
sve
svf
svff
svg
svh
svi
svj
svk
svl
svm
svn
svo
svp
svq
svr
svs
svt
svu
svv
svw
svx
svy
svz
sw
swa
swb
swc
swd
swe
swekey_reset
swf
swg
swh
swi
switch
swj
swk
swl
swm
swn
swo
sword_list
swp
swq
swr
sws
swt
swu
swv
sww
swx
swy
swz
sx
sxa
sxb
sxc
sxd
sxe
sxf
sxg
sxh
sxi
sxj
sxk
sxl
sxm
sxn
sxo
sxp
sxq
sxr
sxs
sxt
sxu
sxv
sxw
sxx
sxy
sxz
sy
sya
syb
syc
syd
sye
syear
sYear
syf
syg
syh
syi
syj
syk
syl
sym
symbol
symgo
symlink
symlinktarget
syn
sync
syncfilter
synchronize
synchronizetagsfrom
synconupgrade
syntax
syo
syp
syq
syr
sys
syscmd
syscontact
sysemail
sysevents
syslocation
SysMessage
sys_module_admin
sys_module_description
sys_module_key
sys_module_parent
sys_module_protected
sys_module_title
sys_module_version
sys_module_visible
system
system_income
system_of_pay_id
syt
syu
syv
syw
syx
syy
syz
sz
sza
szb
szc
szd
sze
szf
szg
szh
szi
szj
szk
szl
szm
szn
szo
szp
szq
szr
szs
szt
szu
szv
szw
szx
szy
szz
t
T
t1
t2
t24
t3
ta
taa
tab
Tab
tab1
tabAction
tabid
tabla
table
tableFields
tableId
tableList
TableList
tablename
tableName
tableprefix
tables
tablo
tabs
tac
tad
tae
taf
tag
Tag
tag_base
tagcloudview
TagFormatsToWrite
tagged
tag_group_id
tagid
tagId
tag_ID
taglist
tag_name
tagname
tag_new
tag_old
tags
tags_input
tagtypes
tagvalue
tah
tai
taj
tak
tal
tam
tan
tao
tap
taq
tar
tarfile
target
Target
targetboard
targetid
targetip
targetname
targets
tas
task
Task
taskid
taskID
tasks
tat
tau
tav
taw
tax
taxid
tax_ID
tax_input
taxonomy
Taxonomy
taxrate
tax_type
taxtype
tay
taz
tb
tba
tbb
tbc
tbd
tbe
tbf
tbg
tbh
tbi
tb_id
tbj
tbk
tbl
tbls
tbm
tbn
tbname
tbo
tbp
tbq
tbr
tbs
tbt
tbu
tbv
tbw
tbx
tby
tbz
tc
tca
tcb
tcc
tcd
tce
tcf
tcg
tch
tci
tcj
tck
tcl
tcm
tcn
tco
tcp
tcpidletimeout
tcpmssfix
tcq
tcr
tcs
tct
tcu
tcv
tcw
tcx
tcy
tcz
td
tda
tdb
tdc
tdd
tde
tdel_reason
tdel_userid
tdel_username
tdf
tdg
tdh
tdi
tdir
tdj
tdk
tdl
tdm
tdn
tdo
tdp
tdq
tdr
tds
tdt
tdu
tdv
tdw
tdx
tdy
tdz
te
tea
teacher
team
teamid
teb
tec
ted
tee
tef
teg
teh
tei
tej
tek
tel
telephone
tem
temat
temp
temp_ID
template
template_content
template_data
templatefile
_template_group
template_group
template_id
templateid
templateID
_template_name
templatename
templates
templates_group_id
templates_group_name
templates_id
templates_name
templates_order
templates_parent_group_id
templates_value
template_type_id
tempLoanID
tempName
ten
tenant
teo
tep
teq
ter
term
Term
terms
tes
test
Test
test_connection
testcookie
TEST_COOKIE
testdata
testdb
testdbpwd
testemail
testID
testing
testmethods
testmode
testMode
tests
testType
testvar
tet
teu
tev
tew
tex
text
text0Name
textarea
textcolor
textfield
textIn
textinputs
text_item
textmail
texto
textonly
tey
tez
tf
tfa
tfb
tfc
tfd
tfe
tff
tfg
tfh
tfi
tfid
tfj
tfk
tfl
tfm
tfn
tfo
tfp
tfq
tfr
tfs
tft
tftp
tftpinterface
tfu
tfv
tfw
tfx
tfy
tfz
tg
tga
tgb
tgc
tgd
tge
tgf
tgg
tgh
tgi
tgj
tgk
tgl
tgm
tgn
tgo
tgp
tgq
tgr
tgs
tgt
tgu
tgv
tgw
tgx
tgy
tgz
th
tha
thankyou
thb
thc
thd
the
theme
theme_close
theme_id
themename
themeName
theme_notice
themes
theme_send_letter
theme_title
theme_visible
thf
thg
thh
thi
thisjobonly
thisX
thj
thk
thl
thm
thn
tho
thp
thq
thr
thread
thread_id
threadid
threadID
threadread
thread_title
threadtitle
thread_visible
threadvisible
threshold
throttle
throwexception
ths
tht
thu
thumb
thumbHeight
thumbnail
thumbnailattachments
thumbnail_id
thumbnails
thumbs
thumbs_size
thumbs_xy
thumbWidth
thv
thw
thx
thy
thz
ti
tia
tib
tic
ticket
ticketbits
ticket_category_id
ticketid
tickets
tid
tID
tids
tie
tif
tig
tih
tii
tij
tik
til
tile
tim
time
timedd0
timedescr
time_format
timeformat
timeFormat
time_format_custom
timeframe
timeIncrement
timeint
timelimit
timeoffset
timeout
timer
times
timeservers
timespent
timestamp
timeUnit
timeupdateinterval
timezone
timezonedetection
timezoneoffset
timezone_string
tin
tint
TinyMCE_content_size
tio
tip
tipo
tiq
tir
tis
tit
TITL
title
Title
titlefeat
titles
title_seo
titre
titulo
tiu
tiv
tiw
tix
tiy
tiz
tj
tja
tjb
tjc
tjd
tje
tjf
tjg
tjh
tji
tjj
tjk
tjl
tjm
tjn
tjo
tjp
tjq
tjr
tjs
tjt
tju
tjv
tjw
tjx
tjy
tjz
tk
tka
tkb
tkc
tkd
tke
tkf
tkg
tkh
tki
tkj
tkk
tkl
tkm
tkn
tko
tkp
tkq
tkr
tks
tkt
tku
tkv
tkw
tkx
tky
tkz
tl
tl24
tla
tlb
tlc
tld
tle
tlf
tlg
tlh
tli
tlj
tlk
tll
tlm
tln
tlo
tlp
tlq
tlr
tls
tlt
tlu
tlv
tlw
tlx
tly
tlz
tm
tma
tmax
tmb
tmc
tmd
tme
tmf
tmg
tmh
tmi
tmj
tmk
tml
tmm
tmn
tmo
tmp
_tmpPostField
tmq
tmr
tms
tmt
tmu
tmv
tmw
tmx
tmy
tmz
tn
tna
tnb
tnc
tnd
tne
tnf
tng
tnh
tni
tnj
tnk
tnl
tnm
tnn
tno
tnp
tnq
tnr
tns
tnt
tnu
tnumber
tnv
tnw
tnx
tny
tnz
to
To
TO
toa
toAdd
to_address
toaddress
tob
toboard
toc
tod
todate
todo
todoAction
toe
tof
tog
toggle
toggledisplay
toh
toi
toid
toj
tok
token
TOKEN
tokens
tol
tom
tomod
ton
too
tool
toolbar
Toolbar
tools
tooltip
top
topic
TopicDesc
topicfilter
topic_firstpost
topic_fixed
topic_id
topicid
topicID
topic_id_new
topic_open
topic_reply_content
topics
topicseen
topicsperpage
topic_tags
topic_title
TopicTitle
topic_title_end
topic_title_st
toppadding
toppool
toProcess
topsearch
toq
tor
torrent
torrentid
torrentsperpage
tos
tot
_total
total
totalcount
totalItems
totalProductCount
totaltopics
totalTracks
tou
touch
Touch
Toucha
Touchm
touserid
tov
tow
town
tox
toy
toz
tp
tpa
tpb
tpc
tpd
tpe
tpf
tpg
tph
tpi
tpj
tpk
tpl
tplID
tplName
tpm
tpn
tpo
tpp
tpq
tpr
tps
tpshcook
tpt
tpu
tpv
tpw
tpx
tpy
tpz
tq
tqa
tqb
tqc
tqd
tqe
tqf
tqg
tqh
tqi
tqj
tqk
tql
tqm
tqn
tqo
tqp
tqq
tqr
tqs
tqt
tqu
tqv
tqw
tqx
tqy
tqz
tr
tra
trace
track
Track
trackback
tracker
trackinalbum
tracknoalbum
tracks
TracksTotal
trackusers
trackzero
tradercap
traffic
trailing_punctuation
trailing_punctuation_for_comment_text
trailing_punctuation_for_description
trailing_punctuation_for_item_text
transaction
transaction_amount
transactionId
transactionID
transfer
transId
transient
_translation_savedokclear_x
_translation_savedok_x
transport
transStatus
trapenable
trappercap
trapserver
trapserverport
trapstring
trash
trashed
trb
trc
trd
tre
tree
treestyle
tresc
trf
trg
trh
tri
tribe
trid
trigger
triggers
tripi_allow_hash
tripi_compl
tripi_hash
tripi_newntf
tripi_newpm
tripi_password
tripi_user_id
trj
trk
trl
trm
trn
tro
trp
trq
trr
trs
trt
tru
truncate
trust
trv
trw
trx
try
TrYaG
trz
ts
tsa
tsb
tsc
tsd
tse
tsf
tsg
tsh
tsi
tsj
tsk
tsl
tsm
tsn
tso
tsp
tsq
tsr
tss
tst
tsu
tsv
tsw
tsx
tsy
tsz
tt
tta
ttb
ttc
ttd
tte
ttf
ttg
tth
tti
ttj
ttk
ttl
ttm
ttn
tto
ttp
ttq
ttr
tts
ttt
ttu
ttv
ttw
ttx
tty
ttz
tu
tua
tub
tuc
tud
tue
tuf
tug
tuh
tui
tuj
tuk
tul
tum
tun
tunable
tuo
tup
tuq
tur
tus
tuser
tut
tuu
tuv
tuw
tux
tuy
tuz
tv
tva
tvb
tvc
tvd
tve
tvf
tvg
tvh
tvi
tvid
tvj
tvk
tvl
tvm
tvn
tvname
tvo
tvp
tvq
tvr
tvs
tvt
tvu
tvv
tvw
tvx
tvy
tvz
tw
twa
twb
twc
twd
twe
tweet
twf
twg
twh
twi
twitter
twj
twk
twl
twm
twn
two
twp
twq
twr
tws
twt
twu
twv
tww
twx
twy
twz
tx
txa
txantenna
TxAuthNo
txb
tx_belog_system_beloglog
txc
txd
txe
txf
txg
txh
txi
txj
txk
txkey
txl
txm
txn
txo
txp
txpower
txq
txr
txs
tx_sysnote_note
txt
txtAddComment
txtAddress
txtCaptcha
txtCommand
txtDescription
txtEmail
txtName
txtPHPCommand
txtRecallBuffer
txtsupport
txtUsername
txtwebemail
txu
txv
txw
txx
txy
txz
ty
tya
tyb
tyc
tyd
tye
tyf
tyg
tyh
tyi
tyj
tyk
tyl
tym
tyn
tyo
typ
type
typE
Type
TYPE
type1
type2
type6
typefilter
typeid
typename
typeofdata
types
TYPO3_INSTALL
tyq
tyr
tys
tyt
tyu
tyv
tyw
tyx
tyy
tyz
tz
tza
tzb
tzc
tzd
tze
tzf
tzg
tzh
tzi
tzj
tzk
tzl
tzm
tzn
tzo
tzp
tzq
tzr
tzs
tzt
tzu
tzv
tzw
tzx
tzy
tzz
u
u1
u10
u11
u12
u13
u14
u15
u16
u17
u18
u19
u1p
u2
u20
u21
u22
u23
u24
u25
u26
u27
u28
u29
u3
u30
u31
u32
u33
u34
u35
u36
u37
u38
u39
u4
u40
u41
u42
u43
u44
u45
u46
u47
u48
u49
u5
u50
u6
u7
u8
u9
ua
UA
uaa
uab
uac
uad
uae
uaf
uag
uagent_name
uagent_regex
uAgents
uAgentsData
uAgentVersion
uah
uai
uaj
uak
ual
uam
uan
uao
uap
uaq
uar
uas
uat
uau
uav
uaw
uax
uay
uaz
ub
uba
uback
ubb
ubc
ubd
ube
ubf
ubg
ubh
ubi
ubj
ubk
ubl
ubm
ubn
ubo
ubp
ubq
ubr
ubs
ubt
ubu
ubv
ubw
ubx
uby
ubz
uc
uca
ucb
ucc
ucd
uce
ucf
ucg
uch
uci
ucj
uck
ucl
ucm
ucn
uco
ucp
ucq
ucr
ucs
uct
ucu
ucv
ucw
ucx
ucy
ucz
ud
uda
udb
udc
udd
ude
udf
udg
udh
udi
udj
udk
udl
udm
udm_action
udn
udo
udp
udq
udr
udrpc_message
uds
udt
udu
udv
udw
udx
udy
udz
ue
uea
ueb
uec
ued
uee
uef
ueg
ueh
uei
uej
uek
uel
uem
uen
ueo
uep
ueq
uer
ues
uet
ueu
uev
uew
uex
uey
uez
uf
ufa
ufb
ufc
ufd
ufe
uff
ufg
ufh
ufi
ufj
ufk
ufl
ufm
ufn
ufo
ufp
ufq
ufr
ufs
uft
ufu
ufv
ufw
ufx
ufy
ufz
ug
uga
ugb
ugc
ugd
uge
ugf
ugg
ugh
ugi
ugid_base
ugj
ugk
ugl
ugm
ugn
ugo
ugp
ugq
ugr
uGroups
ugroup_title
ugs
ugt
ugu
ugv
ugw
ugx
ugy
ugz
uh
uha
uhb
uhc
uhd
uhe
uhf
uhg
uhh
uhi
uhj
uhk
uhl
uhm
uhn
uho
uhp
uhq
uhr
uhs
uht
uhu
uhv
uhw
uhx
uhy
uhz
ui
uia
uib
uic
uid
uID
UID
uids
uie
uif
uig
uih
uii
uij
uik
uil
uim
uin
uio
uip
uiq
uir
uis
uit
uitype
uiu
uiv
uiw
uix
uiy
uiz
uj
uja
ujb
ujc
ujd
uje
ujf
ujg
ujh
uji
ujj
ujk
ujl
ujm
ujn
ujo
ujp
ujq
ujr
ujs
ujt
uju
ujv
ujw
ujx
ujy
ujz
uk
uka
ukb
ukc
ukd
uke
ukf
ukg
ukh
uki
ukj
ukk
ukl
ukm
ukn
uko
ukp
ukq
ukr
uks
ukt
uku
ukv
ukw
ukx
uky
ukz
ul
ul2
ula
ulang
ulb
ulc
uld
ule
ulf
ulg
ulh
uli
ulj
ulk
ull
ulm
uln
ulo
ulp
ulq
ulr
uls
ult
ulu
ulv
ulw
ulx
uly
ulz
um
uma
umb
umc
umd
ume
umf
umg
umh
umi
umj
umk
uml
umm
umn
umo
ump
umq
umr
ums
umt
umu
umv
umw
umx
umy
umz
un
uN
una
uname
unb
unban
unbanreason
unbansubmit
unbookmark
unc
und
undelete
undeleted
undismiss
undo
undodrag
une
unf
unfoldmenu
ung
unh
unhideNavItem
uni
uninstall
uniqid
unique
uniqueid
uniqueID
unit
unitprice
units
unj
unk
unknown
unl
unlock
unm
unn
uno
unp
unpubdate
unpublished
unq
unr
unread
unreleased
uns
unscheduled
unsecuresubmit
unselectall
unset
unsort
unspam
unspammed
unstable
unstick
unsubscribe
unsynchronizedtags
unt
until
untilDate
untrash
untrashed
unu
unv
unverify
unw
unwatch
unx
uny
unz
unzip
uo
uoa
uob
uoc
uod
uoe
uof
uog
uoh
uoi
uoj
uok
uol
uom
uon
uoo
uop
uoq
uor
uos
uot
uou
uov
uow
uox
uoy
uoz
up
upa
upage
upb
upc
upchange
upcom
upcont
upd
update
Update
updateBiblioID
updated
updateData
updatedb
update_details
updatefile
updateFileID
update_home_url
updateid
updateme
updatempd
updateMsgCount
updateRecordID
updates
updateType
updateurl
update_value
updraft_encryptionphrase
updraftplus_backup_nonce
updraftplus_dropboxauth
updraftplus_file
updraftplus_googleauth
updraft_restore
updraft_restorer_wpcore_includewpconfig
updraft_restore_success
upe
upf
upff
upfile
upg
upgrade
uph
upi
upin
upip
upj
upk
upl
upload
Upload
upload_data
uploaddir
uploaded
uploader
uploadf
upload_file
uploadfile
uploadForm
uploadhd
uploading
uploadloc
uploadPath
uploadpos
uploadurl
upm
upn
upo
uporder
upp
upports
upq
upr
ups
upsql
upt
uptime
upu
upv
upw
upx
upy
upz
uq
uqa
uqb
uqc
uqd
uqe
uqf
uqg
uqh
uqi
uqj
uqk
uql
uqm
uqn
uqo
uqp
uqq
uqr
uqs
uqt
uqu
uqv
uqw
uqx
uqy
uqz
ur
ura
urb
urc
urd
ure
urf
urg
urh
uri
URI
urj
urk
_url
url
urL
/URL
URL
url1
url2
urldd0
urldown
urlf
urls
urltype
urlup
urm
urn
uro
urp
urq
urr
urs
urt
uru
urv
urw
urx
ury
urz
us
usa
usb
usc
uscmnds
usd
use
usecurl
used
used_big_image_id_information_group_image
used_big_image_information_group_image
used_big_image_information_item_image
used_big_image_items_catalog_image
used_big_image_shop_sallers_image
use_emo
usefilename
use_html
use_ibc
useicmp
usepost
usepublicip
user
useR
User
USER
useraction
useragent
userAgent
UserChangePassForm
UserChangePassword
UserCreateForm
usercss
userdata
userDialogResult
userEdit
user_email
useremail
userEmail
userEnableRecovery
userf
UserForm
user_forums_read
user_forums_read_all
user_group
usergroup
userGroup
user_group_id
usergroupid
usergroupleaderid
user_id
userid
userId
userID
userids
userinfo
userip
userlength
userlevel
user_login
userlogin
UserLogin
UserLoginForm
usermail
user_name
username
userName
Username
UserName
USERNAME
username2
usernamefld
usernoteid
userpass
user_password
userPassword
userpicpersonal
userpromotionid
user_qiwi
userrealname
UserRecoveryForm
userrole
users
Users
usersaction
usersearch
userselect
UserSettingsForm
users_id
users_name
userspage
userspec
users_superuser
usertitle
usertype
UserType
uses
useservercerts
use_sig
use_ssl
usesubform
usetcp
usetoken
use_typograph
use_typograph_for_comment_text
use_typograph_for_description
use_typograph_for_item_text
usf
usg
ush
usi
usj
usk
usl
usm
usn
uso
usort
usp
usq
usr
usrgroups
usrid
uss
ust
ustname
ustools
ustsub
usu
usuario
usv
usw
usx
usy
usz
ut
uta
utb
utc
utd
ute
utf
utf8
utg
uth
uti
utj
utk
utl
utm
utmac
utm_campaign
utmdebug
utm_medium
utmp
utmr
utm_source
utm_term
utn
uto
utp
utq
utr
uts
utt
utu
utv
utw
utx
uty
utype
utz
uu
uua
uub
uuc
uud
uue
uuf
uug
uuh
uui
uuid
uuj
uuk
uul
uum
uun
uuo
uup
uuq
uur
uus
uut
uuu
uuv
uuw
uux
uuy
uuz
uv
uva
uvb
uvc
uvd
uve
uvf
uvg
uvh
uvi
uvj
uvk
uvl
uvm
uvn
uvo
uvp
uvq
uvr
uvs
uvt
uvu
uvv
uvw
uvx
uvy
uvz
uw
uwa
uwb
uwc
uwd
uwe
uwf
uwg
uwh
uwi
uwj
uwk
uwl
uwm
uwn
uwo
uwp
uwq
uwr
uws
uwt
uwu
uwv
uww
uwx
uwy
uwz
ux
uxa
uxb
uxc
uxd
uxe
uxf
uxg
uxh
uxi
uxj
uxk
uxl
uxm
uxn
uxo
uxp
uxq
uxr
uxs
uxt
uxu
uxv
uxw
uxx
uxy
uxz
uy
uya
uyb
uyc
uyd
uye
uyf
uyg
uyh
uyi
uyj
uyk
uyl
uym
uyn
uyo
uyp
uyq
uyr
uys
uyt
uyu
uyv
uyw
uyx
uyy
uyz
uz
uza
uzb
uzc
uzd
uze
uzf
uzg
uzh
uzi
uzj
uzk
uzl
uzm
uzn
uzo
uzp
uzq
uzr
uzs
uzt
uzu
uzv
uzw
uzx
uzy
uzz
v
va
vaa
vab
vac
vad
vae
vaf
vag
vah
vai
vaj
vak
val
valid
validate
validateId
validateValue
validation
validator
valor
value
values
vam
van
vao
vap
vaq
var
var1
var2
variable
variables
variant
variants
variations
varname
varName
vars
varValue
vas
vat
vau
vav
vaw
vax
vay
vaz
vb
vba
vbb
vbc
vbcodemode
vbd
vbe
vbf
vbg
vbh
vbi
vbj
vbk
vbl
vbm
vbn
vbo
vbp
vbq
vbr
vbrmethod
vbs
vbseoaddon
VBSEO_BLOG_CATID_URI
vbseocpid
vbseoembedd
VBSEO_EXPOSE_MORE
VBSEO_FORUMID_URI
vbseo_is_retrtitle
vbseo_loggedin
vbseo_nocleanup
VBSEO_OFF_MORE
VBSEO_ON_MORE
VBSEO_PAGENUM_URI
VBSEO_PAGENUM_URI_GARS
VBSEO_PICID_URI
VBSEO_POSTID_URI
vbseo_redirect
vbseorelpath
vbseo_retrtitle
VBSEO_THREADID_URI
vbseourl
VBSEO_USERID_URI
vbsq
vbss
vbt
vbu
vbulletin
vbulletin_collapse
vbv
vbw
vbx
vbxsite
vby
vbz
vc
vca
vcb
vcc
vcd
vce
vcf
vcg
vch
vcheck
vci
vcj
vck
vcl
vcm
vcn
vco
vcode
vcp
vcq
vcr
vcs
vct
vcu
vcv
vcw
vcx
vcy
vcz
vd
vda
vdb
vdc
vdd
vde
vdf
vdg
vdh
vdi
vdj
vdk
vdl
vdm
vdn
vdo
vdp
vdq
vdr
vds
vdt
vdu
vdv
vdw
vdx
vdy
vdz
ve
vea
veb
vec
vecdo
vector
ved
vee
vef
veg
veh
vei
vej
vek
vel
vem
ven
vendor
venue
veo
vep
veq
ver
ver1
ver2
verb
verbose
verboselog
verbosity
verification
verified
verify
verifycode
VerifyCode
verifyhost
verifypeer
verse
version
Version
version_check
versions
ves
vet
veu
vev
vew
vex
vey
vez
vf
vfa
vfb
vfc
vfd
vfe
vff
vfg
vfh
vfi
vfj
vfk
vfl
vfm
vfn
vfo
vfp
vfq
vfr
vfs
vft
vfu
vfv
vfw
vfx
vfy
vfz
vg
vga
vgb
vgc
vgd
vge
vgf
vgg
vgh
vgi
vgj
vgk
vgl
vgm
vgn
vgo
vgp
vgq
vgr
vgrlf
vgs
vgt
vgu
vgv
vgw
vgx
vgy
vgz
vh
vha
vhb
vhc
vhd
vhe
vhf
vhg
vhh
vhi
vhid
vhj
vhk
vhl
vhm
vhn
vho
vhostcontainer
vhp
vhq
vhr
vhs
vht
vhu
vhv
vhw
vhx
vhy
vhz
vi
via
vib
vic
vid
video
videoCategory
videoDescription
videoid
videoId
videopress
videos
videosHTML
videoTags
videoTitle
videoType
vie
view
viewall
viewBag
viewed
viewMode
viewname
viewName
viewonline
viewOption
viewResults
views
viewscope
viewscount
viewself
viewtype
viewupgradelog
viewUsers
viewweek
vif
vig
vih
vii
vij
vik
vil
villagename
vim
vin
vio
vip
viq
vir
vis
visibility
visible
visible_theme_id
visualizationSettings
vit
viu
viv
viw
vix
viy
viz
vj
vja
vjb
vjc
vjcomp
vjd
vje
vjf
vjg
vjh
vji
vjj
vjk
vjl
vjm
vjn
vjo
vjp
vjq
vjr
vjs
vjt
vju
vjv
vjw
vjx
vjy
vjz
vk
vka
vkb
vkc
vkd
vke
vkf
vkg
vkh
vki
vkj
vkk
vkl
vkm
vkn
vko
vkp
vkq
vkr
vks
vkt
vku
vkv
vkw
vkx
vky
vkz
vl
vla
vlanprio
vlanprioset
vlb
vlc
vld
vle
vlf
vlg
vlh
vli
vlj
vlk
vll
vlm
vln
vlo
vlp
vlq
vlr
vls
vlt
vlu
vlv
vlw
vlx
vly
vlz
vm
vma
vmb
vmc
vmd
vme
vmf
vmg
vmh
vmi
vmid
vmj
vmk
vml
vmm
vmn
vmo
vmp
vmq
vmr
vms
vmt
vmu
vmv
vmw
vmx
vmy
vmz
vn
vna
vnb
vnc
vnd
vne
vnf
vng
vnh
vni
vnj
vnk
vnl
vnm
vnn
vno
vnp
vnq
vnr
vns
vnt
vnu
vnutr
vnv
vnw
vnx
vny
vnz
vo
voa
vob
voc
vod
voe
vof
vog
voh
voi
void
voj
vok
vol
volume
vom
von
voo
vop
voq
vor
vos
vot
vote
votes
voting
vou
voucher
vouchers
vouchersyncdbip
vouchersyncpass
vouchersyncport
vouchersyncusername
vov
vow
vox
voy
voz
vp
vpa
vpassword
vPath
vpb
vpc
vpd
vpe
vpf
vpg
vph
vpi
vpj
vpk
vpl
vpm
vpn
vpntype
vpo
vpp
vpq
vpr
vps
VPSSignature
vpt
vpu
vpv
vpw
vpx
vpy
vpz
vq
vqa
vqb
vqc
vqd
vqe
vqf
vqg
vqh
vqi
vqj
vqk
vql
vqm
vqn
vqo
vqp
vqq
vqr
vqs
vqt
vqu
vqv
vqw
vqx
vqy
vqz
vr
vra
vrb
vrc
vrd
vre
vrf
vrg
vrh
vri
vrj
vrk
vrl
vrm
vrn
vro
vrp
vrq
vrr
vrs
vrt
vru
vrv
vrw
vrx
vry
vrz
vs
vsa
vsb
vsc
vsd
vse
vsf
vsg
vsh
vsi
vsj
vsk
vsl
vsm
vsn
vso
vsp
vsq
vsr
vss
vst
vsu
vsv
vsw
vsx
vsy
vsz
vt
vta
vtb
vtc
vtd
vte
vtf
vtg
vth
vti
vtj
vtk
vtl
vtm
vtn
vto
vtp
vtq
vtr
vts
vtt
vtu
vtv
vtw
vtx
vty
vtz
vu
vua
vub
vuc
vud
vue
vuf
vug
vuh
vui
vuj
vuk
vul
vuln
vum
vun
vuo
vup
vuq
vur
vus
vut
vuu
vuv
vuw
vux
vuy
vuz
vv
vva
vvb
vvc
vvd
vve
vvf
vvg
vvh
vvi
vvj
vvk
vvl
vvm
vvn
vvo
vvp
vvq
vvr
vvs
vvt
vvu
vvv
vvw
vvx
vvy
vvz
vw
vwa
vwb
vwc
vwd
vwe
vwf
vwg
vwh
vwi
vwj
vwk
vwl
vwm
vwn
vwo
vwp
vwq
vwr
vws
vwt
vwu
vwv
vww
vwx
vwy
vwz
vx
vxa
vxb
vxc
vxd
vxe
vxf
vxg
vxh
vxi
vxj
vxk
vxl
vxm
vxn
vxo
vxp
vxq
vxr
vxs
vxt
vxu
vxv
vxw
vxx
vxy
vxz
vy
vya
vyb
vyc
vyd
vye
vyf
vyg
vyh
vyi
vyj
vyk
vyl
vym
vyn
vyo
vyp
vyq
vyr
vys
vyt
vyu
vyv
vyw
vyx
vyy
vyz
vz
vza
vzb
vzc
vzd
vze
vzf
vzg
vzh
vzi
vzj
vzk
vzl
vzm
vzn
vzo
vzp
vzq
vzr
vzs
vzt
vzu
vzv
vzw
vzx
vzy
vzz
w
wa
waa
wab
wac
wad
wae
waf
wag
wah
wai
wait
waj
wak
wakeall
wal
wam
wan
want
wao
wap
waq
war
warn
warned
warn_flag
warning
warning_id
warning_level
warnings
was
wat
watch
watermark
wau
wav
waw
wax
way
waz
wb
wba
wbb
wbc
wbcp
wbd
wbe
wbf
wbg
wbh
wbi
wbj
wbk
wbl
wbm
wbn
wbo
wbp
wbq
wbr
wbs
wbt
wbu
wbv
wbw
wbx
wby
wbz
wc
wca
wcb
wcc
wcd
wce
wcf
wcg
wch
wci
wcj
wck
wcl
wcm
wcn
wco
wcp
wcq
wcr
wcs
wct
wctx
wcu
wcv
wcw
wcx
wcy
wcz
wd
wda
wdb
wdc
wdd
wde
wdf
wdg
wdh
wdi
wdir
wdj
wdk
wdl
wdm
wdn
wdo
wdp
wdq
wdr
wds
wdt
wdu
wdv
wdw
wdx
wdy
wdz
we
wea
web
webfile
webguiport
webguiproto
webid
weblog_title
webpage
webserver
website
websiteId
wec
wed
wee
week
weekdays
wef
weg
weh
wei
weight
wej
wek
wel
welcome
wem
wen
weo
wep
weq
wer
wes
wet
weu
wev
wew
wex
wey
wez
wf
wfa
wfb
wfc
wfd
wfe
wff
wfg
wfh
wfi
wfj
wfk
wfl
wfm
wfn
wfo
wfp
wfq
wfr
wfs
wft
wfu
wfv
wfw
wfx
wfy
wfz
wg
wga
wgb
wgc
wgd
wge
wgf
wgg
wgh
wgi
wgj
wgk
wgl
wgm
wgn
wgo
wgp
wgq
wgr
wgs
wgt
wgu
wgv
wgw
wgx
wgy
wgz
wh
wha
what
whb
whc
whd
whe
where
whf
whg
whh
whi
which
whitelist
whj
whk
whl
whm
whn
who
whom
whp
whq
whr
whs
wht
whu
whv
whw
whx
why
whz
wi
wia
wib
wic
wid
wide
widget
Widget
widget_id
widget_number
widgets
WIDsubject
width
wie
wif
wig
wih
wii
wij
wik
wiki
wikitext
wil
wildcard
wim
win
window
wins
wins1
wins2
wio
wip
wipe
wiq
wir
wis
wit
with
withCount
withdraw
with_field_names
_with_selected_do
wiu
wiv
wiw
wix
wiy
wiz
wj
wja
wjb
wjc
wjd
wje
wjf
wjg
wjh
wji
wjj
wjk
wjl
wjm
wjn
wjo
wjp
wjq
wjr
wjs
wjt
wju
wjv
wjw
wjx
wjy
wjz
wk
wka
wkb
wkc
wkd
wke
wkf
wkg
wkh
wki
wkj
wkk
wkl
wkm
wkn
wko
wkp
wkq
wkr
wks
wkt
wku
wkv
wkw
wkx
wky
wkz
wl
wla
wlb
wlc
wld
wle
wlf
wlg
wlh
wli
wlj
wlk
wll
wlm
wln
wlo
wlp
wlq
wlr
wls
wlt
wlu
wlv
wlw
wlx
wly
wlz
wm
wma
wmax
wmb
wmc
wmd
wme
wmf
wmg
wmh
wmi
wmj
wmk
wml
wmm
wmn
wmo
wmp
wmq
wmr
wms
wmt
wmu
wmv
wmw
wmx
wmy
wmz
wn
wna
wnb
wnc
wnd
wne
wnf
wng
wnh
wni
wnj
wnk
wnl
wnm
wnn
wno
wnp
wnq
wnr
wns
wnt
wnu
wnv
wnw
wnx
wny
wnz
wo
woa
wob
woc
wod
woe
woeid
wof
wog
woh
woi
woj
wok
wol
wom
won
woo
wood
wop
woq
wor
word
word_default
wordid
wordlist
words
work
workerId
workflow
workgroup
workingdiR
wos
wot
wou
wov
wow
wox
woy
woz
wp
wpa
wpas
wpb
wpc
wpd
wpdmact
wpdm_action
wpdm_login_msg
wpdmtask
wpe
wpf
wpg
wph
_wp_http_referer
wpi
wpj
wpk
wpl
WPLANG
wpm
wpn
wp_nav_menu_args
wp_nav_menu_args_hash
_wpnonce
wpnonce
wpo
wpp
wpq
wpr
wps
wp_screen_options
wpseo
wpt
wpu
_wp_unfiltered_html_comment
wpv
wpw
wpx
wpy
wpz
wq
wqa
wqb
wqc
wqd
wqe
wqf
wqg
wqh
wqi
wqj
wqk
wql
wqm
wqn
wqo
wqp
wqq
wqr
wqs
wqt
wqu
wqv
wqw
wqx
wqy
wqz
wr
wra
wrap
wrb
wrc
wrcont
wrd
wre
wresult
wrf
wrg
wrh
wri
write
writeSchema
WriteTags
wrj
wrk
wrl
wrm
wrn
wro
wrp
wrq
wrr
wrs
wrt
wru
wrv
wrw
wrx
wry
wrz
ws
wsa
wsb
wsc
wsd
wsdl
WSDL
wse
wser
wsf
wsg
wsh
wsi
wsj
wsk
wsl
wsm
wsn
wso
wsp
wsq
wsr
wss
wst
wstoken
wstype
wsu
wsv
wsw
wsx
wsy
wsz
wt
wta
wtb
wtc
wtd
wte
wtf
wtg
wth
wti
wtj
wtk
wtl
wtm
wtn
wto
wtp
wtq
wtr
wts
wtt
wtu
wtv
wtw
wtx
wty
wtz
wu
wua
wub
wuc
wud
wue
wuf
wug
wuh
wui
wuj
wuk
wul
wum
wun
wuo
wup
wuq
wur
wus
wut
wuu
wuv
wuw
wux
wuy
wuz
wv
wva
wvb
wvc
wvd
wve
wvf
wvg
wvh
wvi
wvj
wvk
wvl
wvm
wvn
wvo
wvp
wvq
wvr
wvs
wvt
wvu
wvv
wvw
wvx
wvy
wvz
ww
wwa
wwb
wwc
wwd
wwe
wwf
wwg
wwh
wwi
wwj
wwk
wwl
wwm
wwn
wwname
wwo
wwp
wwq
wwr
wws
wwt
wwu
wwv
www
wwx
wwy
wwz
wx
wxa
wxb
wxc
wxd
wxe
wxf
wxg
wxh
wxi
wxj
wxk
wxl
wxm
wxn
wxo
wxp
wxq
wxr
wxs
wxt
wxu
wxv
wxw
wxx
wxy
wxz
wy
wya
wyb
wyc
wyd
wye
wyf
wyg
wyh
wyi
wyj
wyk
wyl
wym
wyn
wyo
wyp
wyq
wyr
wys
wysiwyg
WYSIWYG_HTML
wyt
wyu
wyv
wyw
wyx
wyy
wyz
wz
wza
wzb
wzc
wzd
wze
wzf
wzg
wzh
wzi
wzj
wzk
wzl
wzm
wzn
wzo
wzp
wzq
wzr
wzs
wzt
wzu
wzv
wzw
wzx
wzy
wzz
x
x1
x2
xa
xaa
xab
xac
xad
xae
xaf
xag
xah
xai
xaj
xajax
xajaxargs
xak
xal
xam
xan
xao
xap
xaq
xar
xas
xat
xau
xav
xaw
xax
xay
xaz
xb
xba
xbb
xbc
xbd
xbe
xbf
xbg
xbh
xbi
xbj
xbk
xbl
xbm
xbn
xbo
xbp
xbq
xbr
xbs
xbt
xbu
xbv
xbw
xbx
xby
xbz
xc
xca
xcb
xcc
xcd
xce
xcf
xcg
xch
xci
xcj
xck
xcl
xcm
xcn
xco
xcp
xcq
xcr
xcs
xct
xcu
xcv
xcw
xcx
xcy
xcz
xd
xda
xdb
xdc
xdd
xde
xdebug
xdf
xdg
xdh
xdi
xdj
xdk
xdl
xdm
xdn
xdo
xdp
xdq
xdr
xds
xdt
xdu
xdv
xdw
xdx
xdy
xdz
xe
xea
xeb
xec
xed
xee
xef
xeg
xeh
xei
xej
xek
xel
xem
xen
xeo
xep
xeq
xer
xes
xet
xeu
xev
xew
xex
xey
xez
xf
xfa
xfb
xfc
xfd
xfe
xff
xfg
xfh
xfi
xfj
xfk
xfl
xfm
xfn
xfo
xfp
xf_post_id
xfq
xfr
xfs
_xfSessionId
xft
xfu
xfv
xfw
xfx
xfy
xfz
xg
xga
xgb
xgc
xgd
xge
xgf
xgg
xgh
xgi
xgj
xgk
xgl
xgm
xgn
xgo
xgp
xgq
xgr
xgs
xgt
xgu
xgv
xgw
xgx
xgy
xgz
xh
xha
xhb
xhc
xhd
xhe
xhf
xhg
xhh
xhi
xhj
xhk
xhl
xhm
xhn
xho
xhp
xhprof
xhq
xhr
xhrLocation
xhs
xht
xhu
xhv
xhw
xhx
xhy
xhz
xi
xia
xib
xic
xid
xie
xif
xig
xih
xii
xij
xik
xil
xim
xin
xinfo
xio
xip
xiq
xir
xis
xit
xiu
xiv
xiw
xix
xiy
xiz
xj
xja
xjb
xjc
xjd
xje
xjf
xjg
xjh
xji
xjj
xjk
xjl
xjm
xjn
xjo
xjp
xjq
xjr
xjs
xjt
xju
xjv
xjw
xjx
xjxargs
xjxcls
xjxevt
xjxfun
xjxGenerateJavascript
xjxGenerateStyle
xjxmthd
xjy
xjz
xk
xka
xkb
xkc
xkd
xke
xkf
xkg
xkh
xki
xkj
xkk
xkl
xkm
xkn
xko
xkp
xkq
xkr
xks
xkt
xku
xkv
xkw
xkx
xky
xkz
xl
XL
xla
xlb
xlc
xld
xle
xlf
xlg
xlh
xli
xlj
xlk
xll
xlm
xln
xlo
xlp
xlq
xlr
xls
xlt
xlu
xlv
xlw
xlx
xly
xlz
xm
xma
xmb
xmc
xmd
xme
xmf
xmg
xmh
xmi
xmj
xmk
xml
xmldata
xmldump
xmm
xmn
xmo
xmode
xmp
xmq
xmr
xms
xmt
xmu
xmv
xmw
xmx
xmy
xmz
xn
xna
xnb
xnc
xnd
xne
xnf
xng
xnh
xni
xnj
xnk
xnl
xnm
xnn
xno
xnp
xnq
xnr
xns
xnt
xnu
xnum
xnv
xnw
xnx
xny
xnz
xo
xoa
xob
xoc
xod
xoe
xof
xog
xoh
xoi
xoj
xok
xol
xom
xon
xoo
xop
xoq
xor
xos
xot
xou
xov
xow
xox
xoy
xoz
xp
xpa
xpb
xpc
xpd
xpe
xpf
xpg
xph
xpi
xpj
xpk
xpl
xpm
xpn
xpo
xpp
xpq
xpr
xps
xpt
xpu
xpv
xpw
xpx
xpy
xpz
xq
xqa
xqb
xqc
xqd
xqe
xqf
xqg
xqh
xqi
xqj
xqk
xql
xqm
xqn
xqo
xqp
xqq
xqr
xqs
xqt
xqu
xqv
xqw
xqx
xqy
xqz
xr
xra
xrb
xrc
xrd
xrds
xre
x_response_code
xrf
xrg
xrh
xri
xrj
xrk
xrl
xrm
xrn
xro
xrp
xrq
xrr
xrs
xrt
xru
xrv
xrw
xrx
xry
xrz
xs
xsa
xsb
xsc
xsd
xse
xsf
xsg
xsh
xsi
xsj
xsk
xsl
xsl_comment
xsl_dir_id
xsl_dir_name
xsl_dir_order
xsl_format
xsl_name
xsl_order
xsl_value
xsm
xsn
xso
xsp
xsq
xsr
xsrf
xss
xss1
xss2
xssfilter
xst
xsu
xsv
xsw
xsx
xsy
xsz
xt
xta
xtb
xtc
xtd
xte
xtf
xtg
xth
xti
xtj
xtk
xtl
xtm
xtn
xto
xtp
xtq
xtr
xts
xtt
xtu
xtv
xtw
xtx
xty
xtype
xtz
xu
xua
xub
xuc
xud
xue
xuf
xug
xuh
xui
xuj
xuk
xul
xum
xun
xuo
xup
xuq
xur
xus
xut
xuu
xuv
xuw
xux
xuy
xuz
xv
xva
xvb
xvc
xvd
xve
xvf
xvg
xvh
xvi
xvj
xvk
xvl
xvm
xvn
xvo
xvp
xvq
xvr
xvs
xvt
xvu
xvv
xvw
xvx
xvy
xvz
xw
xwa
xwb
xwc
xwd
xwe
xwf
xwg
xwh
xwi
xwj
xwk
xwl
xwm
xwn
xwo
xwp
xwq
xwr
xws
xwt
xwu
xwv
xww
xwx
xwy
xwz
xx
xxa
xxb
xxc
xxd
xxe
xxf
xxg
xxh
xxi
xxj
xxk
xxl
xxm
xxn
xxo
xxp
xxq
xxr
xxs
xxt
xxu
xxv
xxw
xxx
xxy
xxz
xy
xya
xyb
xyc
xyd
xye
xyf
xyg
xyh
xyi
xyj
xyk
xyl
xym
xyn
xyo
xyp
xyq
xyr
xys
xyt
xyu
xyv
xyw
xyx
xyy
xyz
xz
xza
xzb
xzc
xzd
xze
xzf
xzg
xzh
xzi
xzj
xzk
xzl
xzm
xzn
xzo
xzp
xzq
xzr
xzs
xzt
xzu
xzv
xzw
xzx
xzy
xzz
y
Y
y1
y2
ya
yaa
yab
yac
yad
yae
yaf
yag
yah
yahoo
yahooicon
yai
yaj
yak
yal
yam
yan
yao
yap
yaq
yar
yas
yat
yau
yav
yaw
yax
yay
yaz
yb
yba
ybb
ybc
ybd
ybe
ybf
ybg
ybh
ybi
ybj
ybk
ybl
ybm
ybn
ybo
ybp
ybq
ybr
ybs
ybt
ybu
ybv
ybw
ybx
yby
ybz
yc
yca
ycb
ycc
ycd
yce
ycf
ycg
ych
yci
ycj
yck
ycl
ycm
ycn
yco
ycp
ycq
ycr
ycs
yct
ycu
ycv
ycw
ycx
ycy
ycz
yd
yda
ydb
ydc
ydd
yde
ydf
ydg
ydh
ydi
ydj
ydk
ydl
ydm
ydn
ydo
ydp
ydq
ydr
yds
ydt
ydu
ydv
ydw
ydx
ydy
ydz
ye
yea
year
yearend
years
yeb
yec
yed
yee
yef
yeg
yeh
yei
yej
yek
yel
yellowavgmhper
yellowdiscards
yellowfan
yellowgessper
yellowgetfails
yellowrejects
yellowremfails
yellowstales
yellowtemp
yem
yen
yeniyer
yeo
yep
yeq
yer
yes
yet
yeu
yev
yew
yex
yey
yez
yf
yfa
yfb
yfc
yfd
yfe
yff
yfg
yfh
yfi
yfj
yfk
yfl
yfm
yfn
yfo
yfp
yfq
yfr
yfs
yft
yfu
yfv
yfw
yfx
yfy
yfz
yg
yga
ygb
ygc
ygd
yge
ygf
ygg
ygh
ygi
ygj
ygk
ygl
ygm
ygn
ygo
ygp
ygq
ygr
ygs
ygt
ygu
ygv
ygw
ygx
ygy
ygz
yh
yha
yhb
yhc
yhd
yhe
yhf
yhg
yhh
yhi
yhj
yhk
yhl
yhm
yhn
yho
yhp
yhq
yhr
yhs
yht
yhu
yhv
yhw
yhx
yhy
yhz
yi
yia
yib
yic
yid
yie
yif
yig
yih
yii
yij
yik
yil
yim
yin
yio
yip
yiq
yir
yis
yit
yiu
yiv
yiw
yix
yiy
yiz
yj
yja
yjb
yjc
yjd
yje
yjf
yjg
yjh
yji
yjj
yjk
yjl
yjm
yjn
yjo
yjp
yjq
yjr
yjs
yjt
yju
yjv
yjw
yjx
yjy
yjz
yk
yka
ykb
ykc
ykd
yke
ykf
ykg
ykh
yki
ykj
ykk
ykl
ykm
ykn
yko
ykp
ykq
ykr
yks
ykt
yku
ykv
ykw
ykx
yky
ykz
yl
yla
ylb
ylc
yld
yle
ylf
ylg
ylh
yli
ylj
ylk
yll
ylm
yln
ylo
ylp
ylq
ylr
yls
ylt
ylu
ylv
ylw
ylx
yly
ylz
ym
yma
ymb
ymc
ymd
yme
ymf
ymg
ymh
ymi
ymj
ymk
yml
ymm
ymn
ymo
ymp
ymq
ymr
yms
ymt
ymu
ymv
ymw
ymx
ymy
ymz
yn
yna
ynb
ync
ynd
yne
ynf
yng
ynh
yni
ynj
ynk
ynl
ynm
ynn
yno
ynp
ynq
ynr
yns
ynt
ynu
ynv
ynw
ynx
yny
ynz
yo
yoa
yob
yoc
yod
yoe
yof
yog
yoh
yoi
yoj
yok
yol
Yol
yom
yon
yoo
yop
yoq
yor
yos
yot
you
yourname
youtube
yov
yow
yox
yoy
yoz
yp
ypa
yPath
ypb
ypc
ypd
ype
ypf
ypg
yph
ypi
ypj
ypk
ypl
ypm
ypn
ypo
ypp
ypq
ypr
yps
ypt
ypu
ypv
ypw
ypx
ypy
ypz
yq
yqa
yqb
yqc
yqd
yqe
yqf
yqg
yqh
yqi
yqj
yqk
yql
yqm
yqn
yqo
yqp
yqq
yqr
yqs
yqt
yqu
yqv
yqw
yqx
yqy
yqz
yr
yra
yrb
yrc
yrd
yre
yrf
yrg
yrh
yri
yrj
yrk
yrl
yrm
yrn
yro
yrp
yrq
yrr
yrs
yrt
yru
yrv
yrw
yrx
yry
yrz
ys
ysa
ysb
ysc
ysd
yse
ysf
ysg
ysh
ysi
ysj
ysk
ysl
ysm
ysn
yso
ysp
ysq
ysr
yss
yst
ystart
ysu
ysv
ysw
ysx
ysy
ysz
yt
yta
ytb
ytc
ytd
yte
ytf
ytg
yth
yti
ytj
ytk
ytl
ytm
ytn
yto
ytp
ytq
ytr
yts
ytt
ytu
ytv
ytw
ytx
yty
ytz
yu
yua
yub
yuc
yud
yue
yuf
yug
yuh
yui
yuj
yuk
yul
yum
yun
yuo
yup
yuq
yur
yus
yut
yuu
yuv
yuw
yux
yuy
yuz
yv
yva
yvb
yvc
yvd
yve
yvf
yvg
yvh
yvi
yvj
yvk
yvl
yvm
yvn
yvo
yvp
yvq
yvr
yvs
yvt
yvu
yvv
yvw
yvx
yvy
yvz
yw
ywa
ywb
ywc
ywd
ywe
ywf
ywg
ywh
ywi
ywj
ywk
ywl
ywm
ywn
ywo
ywp
ywq
ywr
yws
ywt
ywu
ywv
yww
ywx
ywy
ywz
yx
yxa
yxb
yxc
yxd
yxe
yxf
yxg
yxh
yxi
yxj
yxk
yxl
yxm
yxn
yxo
yxp
yxq
yxr
yxs
yxt
yxu
yxv
yxw
yxx
yxy
yxz
yy
yya
yyb
yyc
yyd
yye
yyf
yyg
yyh
yyi
yyj
yyk
yyl
yym
yyn
yyo
yyp
yyq
yyr
yys
yyt
yyu
yyv
yyw
yyx
yyy
yyz
yz
yza
yzb
yzc
yzd
yze
yzf
yzg
yzh
yzi
yzj
yzk
yzl
yzm
yzn
yzo
yzp
yzq
yzr
yzs
yzt
yzu
yzv
yzw
yzx
yzy
yzz
z
za
zaa
zab
zac
zad
zae
zaf
zag
zah
zai
zaj
zak
zal
zam
zan
zao
zap
zaq
zar
zas
zat
zau
zav
zaw
zax
zay
zaz
zb
zba
zbb
zbc
zbd
zbe
zbf
zbg
zbh
zbi
zbj
zbk
zbl
zbm
zbn
zbo
zbp
zbq
zbr
zbs
zbt
zbu
zbv
zbw
zbx
zby
zbz
zc
zca
zcb
zcc
zcd
zce
zcf
zcg
zch
zci
zcj
zck
zcl
zcm
zcn
zco
zcp
zcq
zcr
zcs
zct
zcu
zcv
zcw
zcx
zcy
zcz
zd
zda
zdb
zdc
zdd
zde
zdf
zdg
zdh
zdi
zdj
zdk
zdl
zdm
zdn
zdo
zdp
zdq
zdr
zds
zdt
zdu
zdv
zdw
zdx
zdy
zdz
ze
zea
zeb
zec
zed
zee
zef
zeg
zeh
zei
zej
zek
zel
zem
zen
zeo
zep
zeq
zer
zes
zet
zeu
zev
zew
zex
zey
zez
zf
zfa
zfb
zfc
zfd
zfe
zff
zfg
zfh
zfi
zfj
zfk
zfl
zfm
zfn
zfo
zfp
zfq
zfr
zfs
zft
zfu
zfv
zfw
zfx
zfy
zfz
zg
zga
zgb
zgc
zgd
zge
zgf
zgg
zgh
zgi
zgj
zgk
zgl
zgm
zgn
zgo
zgp
zgq
zgr
zgs
zgt
zgu
zgv
zgw
zgx
zgy
zgz
zh
zha
zhb
zhc
zhd
zhe
zhf
zhg
zhh
zhi
zhj
zhk
zhl
zhm
zhn
zho
zhp
zhq
zhr
zhs
zhsd
zht
zhu
zhv
zhw
zhx
zhy
zhz
zi
zia
zib
zic
zid
zID
zie
zif
zig
zih
zii
zij
zik
zil
zim
zin
zio
zip
zipcode
zipName
ZipName
ziq
zir
zis
zit
ziu
ziv
ziw
zix
ziy
ziz
zj
zja
zjb
zjc
zjd
zje
zjf
zjg
zjh
zji
zjj
zjk
zjl
zjm
zjn
zjo
zjp
zjq
zjr
zjs
zjt
zju
zjv
zjw
zjx
zjy
zjz
zk
zka
zkb
zkc
zkd
zke
zkf
zkg
zkh
zki
zkj
zkk
zkl
zkm
zkn
zko
zkp
zkq
zkr
zks
zkt
zku
zkv
zkw
zkx
zky
zkz
zl
zla
zlb
zlc
zld
zle
zlf
zlg
zlh
zli
zlj
zlk
zll
zlm
zln
zlo
zlp
zlq
zlr
zls
zlt
zlu
zlv
zlw
zlx
zly
zlz
zm
zma
zmb
zmc
zmd
zme
zmf
zmg
zmh
zmi
zmj
zmk
zml
zmm
zmn
zmo
zmp
zmq
zmr
zms
zmt
zmu
zmv
zmw
zmx
zmy
zmz
zn
zna
znb
znc
znd
zne
znf
zng
znh
zni
znj
znk
znl
znm
znn
zno
znp
znq
znr
zns
znt
znu
znv
znw
znx
zny
znz
zo
zoa
zob
zoc
zod
zoe
zof
zog
zoh
zoi
zoj
zok
zol
zom
zon
zone
zonefile
zoneid
zonesub
zonet
zonetxt
zoo
zoom
zop
zoq
zor
zos
zot
zou
zov
zow
zox
zoy
zoz
zp
zpa
zpage
zpb
zpc
zpd
zpe
zpf
zpg
zph
zpi
zpj
zpk
zpl
zpm
zpn
zpo
zpp
zpq
zpr
zps
zpt
zpu
zpv
zpw
zpx
zpy
zpz
zq
zqa
zqb
zqc
zqd
zqe
zqf
zqg
zqh
zqi
zqj
zqk
zql
zqm
zqn
zqo
zqp
zqq
zqr
zqs
zqt
zqu
zqv
zqw
zqx
zqy
zqz
zr
zra
zrb
zrc
zrd
zre
zrecord
zrf
zrg
zrh
zri
zrj
zrk
zrl
zrm
zrn
zro
zrp
zrq
zrr
zrs
zrt
zru
zrv
zrw
zrx
zry
zrz
zs
zsa
zsb
zsc
zsd
zse
zsf
zsg
zsh
zsi
zsj
zsk
zsl
zsm
zsn
zso
zsp
zsq
zsr
zss
zst
zsu
zsv
zsw
zsx
zsy
zsz
zt
zta
ztb
ztc
ztd
zte
ztf
ztg
zth
zti
ztj
ztk
ztl
ztm
ztn
zto
ztp
ztq
ztr
zts
ztt
ztu
ztv
ztw
ztx
zty
ztz
zu
zua
zub
zuc
zud
zue
zuf
zug
zuh
zui
zuj
zuk
zul
zum
zun
zuo
zup
zuq
zur
zus
zut
zuu
zuv
zuw
zux
zuy
zuz
zv
zva
zvb
zvc
zvd
zve
zvf
zvg
zvh
zvi
zvj
zvk
zvl
zvm
zvn
zvo
zvp
zvq
zvr
zvs
zvt
zvu
zvv
zvw
zvx
zvy
zvz
zw
zwa
zwb
zwc
zwd
zwe
zwf
zwg
zwh
zwi
zwj
zwk
zwl
zwm
zwn
zwo
zwp
zwq
zwr
zws
zwt
zwu
zwv
zww
zwx
zwy
zwz
zx
zxa
zxb
zxc
zxd
zxe
zxf
zxg
zxh
zxi
zxj
zxk
zxl
zxm
zxn
zxo
zxp
zxq
zxr
zxs
zxt
zxu
zxv
zxw
zxx
zxy
zxz
zy
zya
zyb
zyc
zyd
zye
zyf
zyg
zyh
zyi
zyj
zyk
zyl
zym
zyn
zyo
zyp
zyq
zyr
zys
zyt
zyu
zyv
zyw
zyx
zyy
zyz
zz
zza
zzb
zzc
zzd
zze
zzf
zzg
zzh
zzi
zzj
zzk
zzl
zzm
zzn
zzo
zzp
zzq
zzr
zzs
zzt
zzu
zzv
zzw
zzx
zzy
zzz1
A2
A5WSessionId
ACT
ADID
AID
AKey
ALP
AMID
AN
ARC
ASection
AU
AWPID9338100D
AWPID98B8ED7F
AbsPos
Act
ActionID
ActiveTab
ActorID
AddBook
AlbumID
Alter
Amount
Anlass
App_mode
Area
AreaID
ArrLokID
ArticleID
ArticleId
ArticlsSite_ID
ArtistID
AspxAutoDetectCookieSupport
AssociateTag
Auth
AuthState
Author
AuthorSearch
BID
Beruf
Beziehungen
BigClass
BigClassID
BigClassName
BlogID
Board
BoardID
BookID
BookId
BoothID
BranchType
Brand
BrandID
C1
CALENDARSEL
CAT
CATEGORY
CAWELAID
CBRehoppp2
CC
CCode
CF
CFID
CFTOKEN
CHANNEL
CHARSET
CId
CMP
CNTN_CD
CODE
CONT
CSID
CT
Cab
CalendarName
CanID
Cat
CatID
CatId
CateID
CateId
CategoryCode
CategoryID
CategoryId
CategoryName
Category_Code
ChannelID
Check
Cid
ClassID
ClassId
ClickID
ClickThruCustomerNumber
ClickThruEmail
ClipID
ClipNo
ClubID
Cod
Code
CoinID
Collection
Color
CommunityJobs
CompanyID
Content
ContentID
ContentId
ContentPageID
Context
Contrast
Cor
Count
CurrentPage
DATE_ACTIVE_FROM
DB_OEM_ID
DID
DO
DT
Database
Date
Day
Db
Designer
DestApp
DestLinkType
Detail
Detailed
DirectoryType
DisplayCurrency
DisplayType
Distid
DocID
DocNum
DocTypeID
DomainID
DoneURL
EAN
EID
ELEMENT_ID
EURING
EkspertId
Enum
Error
Event-page
EventID
EventId
EventKey
EventListViewMode
EventViewMode
ExpandOutline
ExpandSection
Expires
FACET_SUB_ACTIVE
FACET_THEME
FDT
FECHA
FF
FID
FId
FLD
FORM
FORUM_ID
FORUM_THREAD_ID
FST
F_00
FacetCategory
Fid
FilmID
FindGo
FlexDataID
Font
FormID
Format
ForumID
Frmdetails
FromDate
FromPage
Fsize
FuseAction
G
GAID
GID
GI_ID
GO
GOTO
GRP
GUID
GWVersion
GalleryID
GenusName
GfDT
Gid
Goldankauf
Grid-orderBy
GroupID
Guid
H
HELPFUL
HID
Hauptrolle
HideNotice
HomeID
HouseCode
I
IBLOCK_ID
ID2
IDArticolo
IDI
IDM
IID
IMAGE_ID
IS2
ISBN
ITServ
I_DSC
I_DSC_AND
IdModulo
IdProd
IdPub
IgnoreRedirect
ImageID
Include
IncludeBlogs
IndexDataSource
IndexInList
IsMoreExpandedView
Isection
IsisScript
Item
ItemID
ItmID
JL
JobID
K
KAT
KW
KatID
KeepThis
Key
KeyUT
KeyWord
Keyword
Keywords
Kulisse
L1
L2
L3
L4
LANG
LAYOUT
LID
LNG
La
LangCode
LangID
LastViewAction
LeadID
LegID
Length
Level
LineHighlight
Lingua
LinkID
List
ListByBooth
ListID
ListId
Lng
Locale
Location
LocationVehicleId
M
MEDIENNR
MENO
MID
MOD
MODE
MODsid
MP
MainTable
Maintable
Make
MakeName
MarketPlace
Marriage
MatchID
MaxPrice
MemberID
MemberId
MenuID
MenuId
Mid
MinPrice
MnId
ModID
Mode
Model
ModuleInstanceID
Month
MultiCompany
MyTeam
N
NID
NONCE_TOKEN
Nav
NavID
NavType
Ne
NewBreadCrumb
NewsCode
NewsID
NewsId
News_ID
Nid
Nieuws
Nivel
No
Nr
Nrpp
Ns
Nso
Ntk
Nto
Ntt
Ntx
Ntype
Num
Number
O
O1
OB
OD
OID
ON
ONDATE
OP
ObitID
ObjectID
ObjectPath
OneJS
Op
Open
Operation
Option
Order
OrderBy
Org
P
P1
P2
PA
PAGEN_1
PAGEN_2
PAGEN_3
PAGEN_4
PAGEN_5
PAGE_NAME
PBMInit
PC
PF
PG
PGFLngID
PG_ID
PHPSESSIONID
PID
PId
PLanguage
PN
PPE_SID
PR
PREVIEW
PS
PT
PUT
PXSId
Pag
PageAction
PageID
PageId
PageIndex
PageKey
PageName
PageNo
PageNr
PageNum
PageNumber
PageSize
PageSpeed
PageType
ParentBoothID
Part
Path
PathInfo
PersonAccountID
PersonID
PersonId
PetType
PgID
PhotoBy
Pid
PlayerID
PostID
ProdID
ProdId
ProductCode
ProductID
ProductId
ProductLinkNotFound
Product_Code
Product_ID
Purge
QID
QUERY
QUERY_LABEL
Qid
Query
QuestionId
Quote
R2
RECH_eadid
RECH_index
REC_ID
REF
REPLY_ID
RF
RH
RID
RN
RSN
RaceID
Radius
RangeId
Rec
Redirect
RedirectURL
RedirectUrl
Ref
Region
RegistFrom
RenderLoc
ReturnTo
ReturnURL
Rivista
Rnd
RootFolder
S
SC
SD1
SD2
SD3
SECTION_CODE
SECTION_ID
SEO
SES
SHOWALL_1
SITE
SKU
SO
SRSPTitle
SS
SSO
SSOReturnPage
ST
SWUDNSAI
S_id
SailorName
Scene
Scope
Screen
SearchEverything
SearchID
SearchOrder
SearchParam
SearchParameter
SearchString
SearchTerm
SearchText
SearchType
Search_String
Searchword
Seccion_ID
Section
SectionID
SectionMax
ServiceVersion
SessID
SessionCopyComplete
Session_ID
Show
SigAlg
Site
SiteID
Size
SmallClassName
Sort
SortBy
SortDirection
SortFilterOptions
SortID
SortOrder
SortType
Source
SpeciesID
SpeciesName
SrcApp
SrcAuth
SrtBy
Start
StatusFilter
Stil
Store_Code
StoryID
String
SubCanal_ID
SubCat
SubCatID
SubSectionID
Subject
SubjectType
SubmitCurrency
SubscriptionId
Svr
Syf
SyfNmb
Symbol
TAG
TARGET
TB_iframe
TCS
TID
TOPIC_ID
TR
TSSESSIONruntoruincom
TWID
TabID
TabId
TableRow
Talle
Tamanho
Text
ThreadID
Tipo
TipoElemento
Titlesid
Tm
ToDate
TopicID
TotalResult
Track_link
Type2
TypeID
TypeId
U
USER_ID
UserActiveTemplate
UserID
UserKey
UsrCustomerID
V
VBID
VERSION
VID
VOLLTEXT
VP3
V_00
VehicleType
View
ViewAction
ViewID
ViewObjectPath
ViewStyle
VoteID
Vuserid
W
WMO
WSid
WebShieldDRSessionVerify
WebsiteKey
What
Word
WorkID
X
XML_ID
XTCsid
Yacht_ID
Year
Z
_
_49_groupId
_49_privateLayout
_49_struts_action
_58_struts_action
_82_languageId
_82_redirect
_82_struts_action
_ACT
_EXT_ARTICLEVIEW_advancedSearch
_EXT_ARTICLEVIEW_andOperator
_EXT_ARTICLEVIEW_articleId
_EXT_ARTICLEVIEW_content
_EXT_ARTICLEVIEW_cur
_EXT_ARTICLEVIEW_curValue
_EXT_ARTICLEVIEW_delta
_EXT_ARTICLEVIEW_description
_EXT_ARTICLEVIEW_groupId
_EXT_ARTICLEVIEW_i
_EXT_ARTICLEVIEW_keywords
_EXT_ARTICLEVIEW_orderByCol
_EXT_ARTICLEVIEW_orderByType
_EXT_ARTICLEVIEW_redirect
_EXT_ARTICLEVIEW_searchArticleId
_EXT_ARTICLEVIEW_status
_EXT_ARTICLEVIEW_structureId
_EXT_ARTICLEVIEW_struts_action
_EXT_ARTICLEVIEW_templateId
_EXT_ARTICLEVIEW_title
_EXT_ARTICLEVIEW_type
_EXT_ARTICLEVIEW_version
_SRC
__CSRFTOKEN__
___SID
___from_store
___store
__amp_source_origin
__canz
__cjahr
__cmonat
__cselect
__hsfp
__hssc
__hstc
__ksigrnr
__locale
__ncforminfo
__osidat
__twitter_impression
_a
_action
_artperpage
_au
_bc_fsnf
_bolsistacnpqportlet_WAR_bolsistacnpqportlet_INSTANCE_1Yzf_advancedSearch
_bolsistacnpqportlet_WAR_bolsistacnpqportlet_INSTANCE_1Yzf_andOperator
_bolsistacnpqportlet_WAR_bolsistacnpqportlet_INSTANCE_1Yzf_codigoGrandeArea
_bolsistacnpqportlet_WAR_bolsistacnpqportlet_INSTANCE_1Yzf_codigoInstituicao
_bolsistacnpqportlet_WAR_bolsistacnpqportlet_INSTANCE_1Yzf_codigoModalidade
_bolsistacnpqportlet_WAR_bolsistacnpqportlet_INSTANCE_1Yzf_codigoPequenaArea
_bolsistacnpqportlet_WAR_bolsistacnpqportlet_INSTANCE_1Yzf_delta
_bolsistacnpqportlet_WAR_bolsistacnpqportlet_INSTANCE_1Yzf_keywords
_bolsistacnpqportlet_WAR_bolsistacnpqportlet_INSTANCE_1Yzf_resetCur
_bolsistacnpqportlet_WAR_bolsistacnpqportlet_INSTANCE_1Yzf_siglaPais
_bolsistacnpqportlet_WAR_bolsistacnpqportlet_INSTANCE_1Yzf_siglaUF
_bolsistacnpqportlet_WAR_bolsistacnpqportlet_INSTANCE_1Yzf_testeNivel
_bqG
_bqH
_cldee
_com_liferay_login_web_portlet_LoginPortlet_mvcRenderCommandName
_crDetailWicket_WAR_arenaportlet_back_url
_csrf
_dad
_dnlink
_encoding
_eventName_CompanyEvent
_event_companyId
_event_companyTypeId
_facet
_fid
_ga
_gac
_glst
_groups_limit
_hsenc
_hsmi
_id
_intl
_jcp
_k
_lang
_license_id_limit
_lid
_loc
_locale
_m
_mode
_noJs
_nodeSelectName
_np
_organisationseinheit_WAR_suchegui_topics
_organization_limit
_p
_pageid
_pg
_portlet_ref
_pos
_pp
_prevCmd
_properties
_query
_rdm
_ref
_requestid
_res_format_limit
_rnd
_route_
_rpo
_s
_s2member_sig
_s2member_vars
_schema
_sort
_ss
_t
_tags_limit
_target_path
_thumbnail_id
_trkparms
_trksid
_tsrc
_v1
_variations
_view
_x_zm_rhtaid
_x_zm_rtaid
_z
aCategoryRange
aId
aOverallLiking
a_aid
a_bid
a_id
aa59e7678558b85d64e92e8
aar_first
aar_second
ab_test_product_pages
abstract_id
academic_year
accent
access_num
accion
account_id
accurate
active_action
active_items
adMode
ad_id
ad_type
add-to-cart
addFilter
add_acc
add_cat
add_event
add_site
add_tag
add_to_wishlist
add_txt
add_type
addargs
adid
adna
adnp
adnp2
adult
adults
advancedSearchForm
advanced_search
ae_global_templates
af_sub1
af_sub4
aff_id
affid
affiliate_id
affiliation
age_group
agency_id
agent_id
agentid
agid
ai1ec
ai1ec_cat_ids
ai1ec_event
ai1ec_post_ids
ai1ec_tag_ids
aid4
akce
akcja
aktion
aktsioon
album_gallery_id_0
album_gallery_id_1
album_gallery_id_2
album_gallery_id_3
album_gallery_id_4
album_gallery_id_5
album_gallery_id_6
album_gallery_id_7
album_id
allConcepts
all_activity
all_items
alph
alphabet
alphabet_filter
amenities
amode
ampampday
ampampid
ampampmonth
ampamptimestamp
ampampyear
ampday
ampid
ampmonth
ampyear
anchor_link
and_or
andor_type
anid
anio
ank_action
anketa_id
annee
anno
anolect
anti_csrf_token
anummer
any_academic
ap7
api_key
apid
app_id
app_type
appearance
aquariumId
ar_id
arbol
archiv
archive_query
archived
archives
area_id
areaid
arquivo
arrtID
artID
art_id
artdata
article-title
articleID
articleId
article_ID
article_category
article_category_id
article_id
article_realateto
article_type
articles_id
articolo_id
artid
artikel
artist_id
artnr
artspec
artwork
artworkId
ascdesc
ascsubtag
asins
aspect
aspxerrorpath
asset_id
assumedName
at59
athleteid
athrT
atom
attachauth
attachedTo
attredirects
attrib
attribute_pa_color
attribute_pa_size
attributename
attributevalue
auction_source
auction_start_seg
audRub
audience
auswahl
auteur
auteurs
authCookie
authFullName_s
authMode
authorFacet
authorId
authorIds
author_keyword
authorid
authority
authorsPage
authuser
autoExpandDisclaimer
autoPlay
auto_play
autocorr
autohide
autornr
autostart
auxfun
availability
avia-element-paging
avia_extended_shop_select
ayuntamiento
bIdx
bIsSeoPage
bIsSitemap
bTopDealsOnly
b_id
backLink
backURL
backUrl
back_url
backgroundColor
backlink
bairro
band
band_id
banner_action
bannerid
base_id
bathrooms
baths
batterX
battlegate_prod_sid
bb_limitstart
bbls_client_id
bbp_reply_to
bbsId
bbs_code
bbs_id
bbs_no
bc1
bdId
bdclkid
bedrooms
beds
beginIndex
begindate
behoerde
bereich
bestnr
bg1
bibid
biblionumber
bidId
bidaccepttime
bids
bigclassid
bigclassname
biggerVersion
bild
billFileID
billNumberDetail
billSuffixDetail
billtypeDetail
bind
bip_id
bk_no
blackhole
bloccocorrente
block_id
blog-domain
blog-title
blog_id
blogcategoryid
blogmonth
blogyear
bm_description
bm_url
bmode
bo_table
boardID
boardId
board_act
board_cate
board_code
board_id
board_no
bodypart
book_format
book_id
bookid
boost
bootswatch-theme
box_idxno
bp-auth
brand-id
brandId
brand_id
brandcode
brandid
brands
branduid
breed
bss0
btag
btype
bundle
busca
buscador
business_id
busqueda
but_search
button_num
by-date
by_author
byp455
byte
bytes
c1
c3
cHash
cId
c_id
ca_id
caa_id
cabin
cacheKiller
calID
calType
cal_d
cal_id
cal_m
cal_ts
cal_y
caldate
calendarFilterDisplayName
calendarId
calendarMonth
calendar_category_id
calendar_feature_id
calendar_page
calendar_page_prev
calendrier_annee
calendrier_mois
callsign
came_from
camera
camp
campaignIndex
campaign_id
campus
can_id
canal
canonicalUrl
canzone
cap_id
carGroup
cart_id
case_id
case_type
cast
cat-main
cat-sub
cat1
cat2
catAttribute
catName
catNames
catTdirect
cat_id
catagory
catalog
catalogId
catcode
cate
cate1
cate2
cateCd
cate_id
cate_no
cate_sub_idx
categ
categoria
categorie
category-id
category-search
category1
categoryAttribute
categoryId
categoryIds
categoryNames
category_code
category_id
category_name
category_no
category_page_id
categorylayout
catgid
catids
catno
catnovosti
catoid
catr
catsmktba
catv32
cbRecursionCnt
cbfid
cbid
cbp_filters_submit
cbskin
ccdr
cclfield1
cclfield2
cclfield3
cclfield4
cclfield5
cclfield6
cclfield7
cclfield8
cclop1
cclop2
cclop3
cclop4
cclop5
cclop6
cclop7
cclterm1
cclterm2
cclterm3
cclterm4
cclterm5
cclterm6
cclterm7
cclterm8
ccm_paging_p
ccplid
cd_id
cds_cookietest
ceid
centre
certification
cfda
cgid
chair_base
change_direction
change_section
channel_id
channelid
chap
chartwidth
chash
checkAvail
check_rating_number
checkedfacets
checkin
checkout_url
cheftype
chiave
chid
chronoform
cidTexte
cidade
cikk
cinfo
cisloclanku
cite
citeStyle
cities
citizen
citta
city_id
citycode
cityhealthchannel
cityid
cityname
ckbo
clDisplayCde
clanek
clang
class1
class2
class3
classID
classId
class_id
classid
clear_cache
clear_pages
clearall
click
click_x
click_y
clickid
clid
client-request-id
clientZone
client_id
climate
clinam
clipId
club
clubID
clubId
club_id
cm_mmc
cm_sp
cmpT
cmpid
cms_block
cnid
cnme
cnt_id
cntnt01articleid
cntnt01origid
cntnt01returnid
coID
co_id
code2
codedpassword1
codestation
codice
codigo
coid
col13
col6
colid
coll
collectionIds
collection_id
collections
colorCode
colorDiplayCode
colorDisplayCode
color_extended
color_family
colour
columnId
comContentId
com_board_basic
com_board_id
com_board_idx
com_board_page
com_board_search_code
com_board_search_value1
com_board_search_value2
comeFrom
comic
comid
comm
comment_srl
commenter
commentsopen
compId
comp_id
companyId
companyTypeId
company_id
companyid
competitionGroup
compid
complete_credits
componentStyle
component_text
composition_tree_id
comunidad
conc
conceptIds
cond
conference
console
contact_id
contenido
content-page
contentEncoding
contentID
contentId
content_id
content_only
content_type
contentid
contextData
contextType
contid
contract
contractNumber
contractorName
contrast
contributor
contributor_name_string
controllerUri
controls
contry
cookieSet
cookie_lang
coorDispayCode
copyownerid
corn-free
couleur
coun_id
countryId
country_id
countryid
county
coureurid
course_id
course_level
courseid
cpID
cpid
cpint
create_account
created_offset
creative
creativeASIN
creator
creators
crid
critinit
crop_id
csrfKey
csrfToken
csrf_token
cssType
ctry
cuisine
culture
curPos
cur_cc
cur_code
cur_warehouse
curid
currentDate
currentTab
current_store_id
currentpage
cusip
customFilters
customHeader
custom_date_end
custom_date_start
customize_autosaved
customize_changeset_uuid
cv_id
cypher
d13afc6835dd26137b409becc9f87
d6wrap
dDocName
d_id
d_op
dairy-free
darst
data1
dataID
dataid
dateFromDay
dateFromMonth
dateFromYear
dateRange
dateToDay
dateToMonth
dateToYear
date_begin
date_from
date_posted
date_select
date_to
datecut
daterange
datestring
datsatz
datum
dayID
day_id
dbuje
dchild
dclid
dealer
debut
debut_article_rubrique_date
debut_article_rubrique_numerotes
debut_articles
debut_articles_rubrique
debut_articulos
debut_auteurs
debut_breves
debut_mots_freres
decade
defn
delvtype
departement
dept_id
designer
desktop
dest_url
destination_error
detail-search
detailevent
detailid
detale
deviceId
deviceType
dfApplied
dh_zy
dico
difference
difftype
direction_id
directory_radius
dirids
disableRedirect
discrim
disp_order
dispatch
displayMode
displayPages
display_group
display_help
display_mode
display_set
dispmax
disprec
disseration
dist
district
districts
division
divpage
dlm_download_category
dm_i
do_cmd
docID
docId
doc_id
doccnt
doclang
documentId
document_srl
document_type
documents
doktyp
dollar_books
domainToCheck
domain_id
dopost
download_id
dr_resume_button
dr_resume_link
draw
drefid
drill
dscnt
dstmp
dtype
dvid
dwday
dynamisch
dzial
e0
e1
e2
e3
e4
e5
e85e8d
eID
eId
eType
each_game
ecms3
edan_local
edan_q
edate
edet
edicao
editeur
educational_stages
ee_lang
ef_id
ekran
el_mcal_month
el_mcal_year
election
elementor_library
elqCampaignId
elqTrackId
elqaid
elqat
email_referrer
email_subject
emcs0
emcs1
emcs2
employerId
employerName
enablejsapi
ename
encodedEmail
endDateTime
end_date
enmse
enmse_mid
entries_per_page
entry_id
enttype
eo_month
eolabid
eolcode
episodeNo
episode_no
epslanguage
errorDesc
ertthndxbcvs
esid
espece
esrc
et_fb
etal
eunix
event1
event2
event3
eventCode
eventDisplay
event_date
event_id
event_id1
event_num
event_town
event_type
eventdate
eventtype
evid
exam
exam_del_id
exch
exclude-id
excludedFilters
executeQuery
execution
exhibit
exhibition
exiturl
experience
export_method
export_type
exprSearch
expression
extd
extmode
exto
extra_vars1
f0
f0v0
f0v1
f0v2
f1
f1v0
f3
f4
f5
f6
f7
fIDnum
f_0
f_IconClass
f_area
f_author
f_country
f_goodsno
f_teikei
f_type
fabric
facet
facet-subj
facet1v
facetClause
facetName_1
facetName_2
facetName_3
facetName_4
facetName_5
facetName_6
facet_1
facet_2
facet_3
facet_4
facet_5
facet_6
facet_board_facet
facet_field
facet_loc
facet_price_facet
facetcategory
facetcitystate
facetcountry
facets
familia
familyID
familychannel
faqe
favorite
favs
fb_action_ids
fb_action_types
fb_source
fbclid
fbrefresh
fc1
fcountry
fctN
fctV
fdx_switcher
feat
feature_id
featured_author
featureor
features_hash
fecha
federatedSearchId
federated_search_id
federated_search_session_id
federation
feedTitle
feed_id
feedbackForm
feedformat
feetype
ff1
ff2
ff3
fid0
field-keywords
field_archive
field_author_tid
field_bgm_typemedia
field_country_tid
field_document_categories_tid_i18n
field_document_kind_tid_i18n
field_location_tid
field_press_release_type_tid
field_resource_type_tid
field_tags_target_id
field_value
fileId
file_id
file_name
file_no
file_srl
file_url
fileticket
film
filterByDate
filterByStatus
filterID
filterYear
filter_0
filter_1
filter_10
filter_11
filter_12
filter_13
filter_14
filter_15
filter_2
filter_3
filter_4
filter_5
[...]
invite_code
invokemethod
inwc
ioffset
ipath
ipid
isAllowed
isLogin
isNav
isNonaffiliated
isResult
is_comment
is_gndl
is_logged
is_mile
is_pc
is_preview
is_subsequent_search
isappinstalled
iset
isin
islandora_solr_search_navigation
isource
issn
issueid
it_id
item_description
item_name
item_no
item_pubdate
itemno
itemnumber
itemsPerPage
items_offset
items_per_page
itid
itm_campaign
itm_medium
itm_source
itsec-hb-token
itype
iv_load_policy
ixsid
j_password
j_username
jaar
jazyk
jcid
jet-theme-core
jetpack-sso-show-default-form
jezik
jlid
jobId
job_did
job_id
jobcategory
jobtype
jornada
jour
journal
journalTitle
journal_blog_post_id
journal_id
journalid
jrule
jsn_mobilize_preview
jssCart
jtitle
jump_from_id
jumpurl
justlyrics
k1
k4
k_babaCode
k_lineageLoginCode
k_raceDate
k_raceNo
kal_Aktion
kal_Nummer
kat_id
kataloge
kate
kategori
kategoria
kategorie
kathaupt
kbetu
kboard_content_redirect
ke_dni
keepThis
keep_number
keyfield
keyfield1
keytype2
keyword1
keyword_0
keyword_1
keyword_2
keyword_3
keyword_4
keyword_5
keywords_fra
keywords_it
kinds
klasse
knjiga
kohafield
kontrast
kosher-d
kosher-de
kr_mode
kraj
ksid
kurs
kwid
l-id
l1
l2
l_id
la_key_features2
lancel
land
lang2
langId
langRub
lang_exact
lang_id
lang_translate
langchoice
langid
languageChange
languageCode
languageId
language_code
language_id
languagebutton
langue
langurlbits
lanmu
lastFacetInteracted
last_kat
last_nd
last_update
lastmenu
lastsearch
lastt
latest-keys
latest_keys
layoutMode
layoutWidth
lc1
lcid
lcode
lcp_page0
lcp_page2
lcp_page3
lcp_page4
ldtype
league
legSession
lemma
lens
letra
letterfrom
letters
letterto
lettre
libs
license_id
lien
liga
lightning
like_comment
limAddSrvTypes
limit_subject_t
limitstart
lineId
lingua
linkCode
linkID
linkId
linkToGetPictureFrom
linkToPicturePage
link_opens_in_new_window
link_product_no
link_type
linkid
linkto
listStyle
listType
list_type
list_uids
list_view
lista
listingID
listingId
listingType
listing_id
listing_type
listingid
listnum
listorderby
listtype
litera
live_configurator_token
lmid
lnkmsk
load_file
load_url
loadtime
loca
localEndDate
localStartDate
localcode
locale-attribute
localisation
locate
locationLimit
location_id
locn
logged_domain
logged_out
loginFacebook
loginRequestId
loginSocial
login_source
login_url
loginstatus
logout_uri
loja
long_events
lookfor
lotNo
lower_bound
lownerid
ls-art1
lt1
ltype
m-layered
m1
m2
m3
mId
m_id
maand
macro
mact
madori
mailpoet_page
main_id
main_page
makerid
mall
mandat
manualLanguageChange
manufacturer_id
manufacturername
manufacturers_id
mapID
mapType
mapa-webu
marca
marka
market
marketName
marketplace
markreadhash
marque
marques_id
match_length
matchesPerPage
material
max-results
maxHeight
maxPrice
maxRows
maxWidth
max_display_level
max_height
max_id
max_items
max_price
max_results
max_value
max_width
maxads
maxdepth
maximum
maxlat
maxlen
maxlon
maxmag
maxprice
maxradiuskm
mbprodid
mc_cid
mc_eid
mc_id
mcat
mcode
mdId
mediaID
mediaType
media_id
mediado
mediatypeID
mediatypes
medio
medium
meetid
meetingid
meili_aktuell
memberid
memid
menuCd
menuID
menuId
menuNo
menu_id
menucat
mepr-unauth-page
merit
merk
merken
mese
message_icon
messages__Message_ID
metadataPrefix
mgrp-type
miadt
miaet
micd
micode
mida
middleName
milang
minPrice
min_beds
min_price
min_value
mindepth
ministre
minlat
minlon
minmag
minprice
minr
minusFilter
minuut
minversion
misto
mivast
miview
mixFilter
mizig
mkt_tok
mktdata
mls_number
mlsid
mnu_uid
mnuid
mobileOn
mobileVersion
mobileaction
modID
mod_id
modeTY
model_id
modelid
modelo
models
moderation-hash
modestbranding
modjemcal_id
modjemcal_month
modjemcal_year
modo
modul
moduleID
module_id
module_srl
moduleinstid
modulo
modus
mois
monat
monthID
monthly_view
monthno
moreOrLess
motcle
mots
mots_recherche
motscles_slug
movieid
msclkid
mshow
multilink
my_post_key
myaccount_hash
myord
myshownums
mzamin
nId
n_id
n_items
naam
nachname
name_box
name_facet
name_selected
nats
natural
nav_id
nav_wrap
navi
navid
navref
nazevclanku
ncid
ncod
ncode
neighborhood
newReq
newUrlPath
new_theme
news-page
newsID
newsId
newsTypeID
news_hk
news_id
newsandcommentary
newscode
newskeyid
newstype
newsview
nextAction
next_url
nggpage
ngsw-bypass
nights
nivel
nmenu
nmonth
noIndex
no_cache
no_html
no_renew
no_results
noamp
nodeId
nofollow
nohist
noimg
nojsmode
nom_programme
noquote
nore
noresponsive
noresults
noscript
notFound
nota
noticesGrid-itemsPerPage
noticesGrid-order
noticia
nowSu
nowt
nttId
num1
num2
num_article
numberOfItems
number_of_uploads
numer
numero
numfiche
nummer
nv_redirect
nyelv
o0
o1
o2
o3
o4
o5
o6
o7
o8
o9
oId
oaparams
obId
obec
obj_id
objectId
objectType
objectType_facet
object_id
objectid
objid
obnr
obstype
occid
occurrence
occurrence_id
oceanwp_library
oeuvre
offer
offerID
offer_id
offer_profession
offer_token
office
offmarket
offre
old_offset
oldal
oldget
oldid
olorDsplayCode
olsPage
omjindustry
omkt
omraade
omrade
onglet
onlyMedia
only_mod_instance
open-article-id
openId
openImage
openfile
openness_score
opkey
opt_type
option_id
oralhist
orden
order2
order_by
order_type
ordertype
orderway
ordre
org1
org2
org3
orgId
orgRub
org_id
organisations
organizations
orig_query
origem
origen
origin_path
origine
osCsid
os_destination
osoba
outb
outletInfo
outputformat
overlay
overview
own_menu_id
owner_id
owner_num
p0
p4
p5
pGanjioption
pId
pMonth
pOption
pREC_ID
pYear
p_auth
p_category_id
p_cust_id
p_id
p_id_domn
p_id_sectr
p_id_ss_domn
p_iden_tran
p_l_id
p_lang
p_operacao
p_order_serno
p_p_auth
p_p_col_count
p_p_col_id
p_p_col_pos
p_p_id
p_p_lifecycle
p_p_mode
p_p_state
p_price_cd
p_promo_cd
p_r_p_564233524_categoryId
p_r_p_564233524_resetCur
p_r_p_564233524_tag
p_r_p_appType
p_r_p_catIds
p_session_serno
p_trans_ty
packet
pageCode
pageComponentId
pageIndex
pageName
pageNo
pageNoA
pageNoS
pageNotFound
pageNum
pageNum_rsLista
pageNumber
pageSort
pageView
page_
page_4
page_6
page_ak
page_id_all
page_mode
page_no
page_num
page_number
page_number_0
page_number_1
page_number_2
page_size
page_type
page_url
pagebreak
pageindex
pager
pages_id
pagetype
pagina
paginas
paginate_by
pagingSize
paletteId
paperid
param_chinese_checkbox_save
param_chinese_checkbox_type_save
param_current_view_save
param_jumpToPage_save
param_jumpToPage_value
param_lang_save
param_langcode_save
param_letter_group_save
param_letter_group_script_save
param_letter_group_script_value
param_letter_group_value
param_pattern_save
param_pattern_value
param_perform_save
param_services2filter_save
param_sid_save
param_textSearchType_save
param_type_save
param_type_value
param_ui_control_scripts_save
parentCatId
parentName
parentPageAlias
parentset
parms
partID
partId
part_id
partnerId
partnerid
party
passage
password-protected
pathrev
paymentMethods
pays
pcmd
pcode
pct_grupo
pd_rd_i
pd_rd_r
pd_rd_w
pd_rd_wg
pdate
pdir
people
per-page
per_row
periode
permissionViolation
pers-type
personID
person_id
personid
personnes
personsid
pesq
pf_rd_i
pf_rd_m
pf_rd_p
pf_rd_r
pf_rd_s
pf_rd_t
pfstyle
pgNr
pgT
pg_avancada
pgid
pgmode1
phocadownload
phocaslideshow
photoID
photo_id
phpcan_action
picDescription
pic_id
picid
pickupDate
pickupHour
pickupLocationId
pickupMinute
pickupMonth
pickupYear
pictoshow
picture_id
piddl_month
piddl_msgorder
piddl_year
piddlyear
pilih
pitchSel
pk_campaign
pk_kwd
pk_num
pkid
place_facet
place_id
places
plang
plant-based
play_date_from
play_date_to
playerID
playerId
player_id
playerid
playlistId
playlist_id
plng
pmax
pmin
pmode
pnum
poglavlje
poid
pointInTime
policyAreas
politicians
ponto
popular_categories
portal
portalId
portal_id
portalid
portfolio
portfolioCats
portfolioID
portfolio_category
poru
posh_referer
posicion
postID
postalCode
postdays
postorder
prduct_id
preacher
precision
pref_done
preferlocale
prefix_id
prefn1
prefn2
prefn3
prefn4
prefv1
prefv2
prefv3
prefv4
preline
presentacion
prevGame
prev_no
prev_units
prev_url
previous_page_section_name
prevnext
priceFilter
priceType
price_id
price_max
price_min
price_range
pricerangefrom
pricerangeto
prid
prijevod
primaryID
primeid
printable
printit
printsec
pristupnost
privateFilter
proTypeID
pro_id
prod
prodID
prodId
prod_id
prodid
product-id
product-page
productCateId
productCode
productID
productId
productType
product_cat
product_category
product_code
product_count
product_format
product_id_hash
product_list_dir
product_list_order
product_no
product_order
product_orderby
product_slno
product_sort
product_tag
product_type
product_view
products-per-page
products_id
products_image_large_additional
productsperpage
productsublayout
produkt
produto
profession
professionUuid
profil
profile_id
profiletab
proid
project_id
promo
promoCode
promo_code
promocode
promocodeaction
promotionId
prompt
propType
property_id
property_type
propid
providerId
province_id
provinceid
provincia
prule
prvtof
prz_kod
ps_goid
ps_id
ps_sess_id
psearch
ptid
ptrid
pub_id
pubblicazioni
pubid
publication
publicationId
publicationPageNumber
publicationYear
publicationYearsFrom
publicationYearsTo
publicationstatus
publicationtypes
publikation_txt
publisherIds
pure
purl
q1
q_0
qa_1
qanda-list_page
qbhf
qnapage
qpid
qt-admissions
qt-graduate_admissions
qt-qtlibro
qt-quicktab_servizos_por_tipo
qt-quicktabs
qt-sidebar_tabs
qt-undergraduate_admissions
qt-view__servizos__servizos_colectivo_interesados
qt-view__servizos__servizos_tema
qt-view__servizos__servizos_tipo_actuacion
qt-view__servizos__servizos_tipo_centro_servizos
qt-view__servizos__servizos_tipo_publicacion
qterm
qtid
qual
qualification
qualifier
quand
query1
queryid
question_id
quickjump
quicktabs_1
quoi
quote_code
qurl
rCH
r_done
r_id
race_id
raceid
rad_units
radchoice
radexpo
radmanc
radnewman
radsearch
random-post
range_end
range_field
range_start
rating_filter
razdel
razdel_board
rb_br
rccode
rcid
rcode
rdng
reaction
readmore
recHide
recIds
recIdxs
recaptcha-opt-in
rech
rechercheTerme
recid
recipe_id
recipientName
recipientid
recommend_type
recor
record_id
redirectTo
redirectUrl
redirected
redlink
reduced
reduced-in-sodium
refGallery
refId
refPageViewId
refRID
ref_
ref_id
ref_url
refer
referencia
referrer_id
refine
refr
regionID
region_id
regiongroup
regionid
regions
registrardownload
regnum
relacion
release1
release2
remorapos
remoraregion
remorasrc
remove_facet
remove_item
renderMode
rendermode
reply-to
reply_comm
repname
repos
reppost
repquote
reqCode
res_format
research_interest_filter
researchersPageNumber
residency
residencyId
resource-type
resourceId
resource_type
resourceid
resourcetype
response-content-disposition
response_mode
response_type
respp
ressort
restypes
resultForward
resultsPerPage
ret_url
retpath
returnAddress
returnDate
returnHour
returnLocationId
returnMinute
returnMonth
returnTo
returnYear
return_path
return_url
returnbutton
returntoquery
returnuri
revcount
reverse-paginate
reviewId
review_hash
review_id
reviewboard_page
reviewboardfile_page
reviewid
reviews_id
rez_id
rfnGrp
rfnGrpCounter
rfolio
rfsn
rft_id
riksmote
ritid
rmalg
rmmds
road_number
robots
rodzaj
roll
romeoid
roomType
rooms
root_id
rootid
routerData
routestring
rowOffset
rowstart
rpinfo
rpmID
rsautor
rskde
rskey
rskolik
rskolikata
rsrazeni
rstema
rstext
rsvelikost
rtype
rubr
rubric
rubrik
rubrique
rules_category
rules_document_type
runnername
runr_id
rv_pid
s1
s2
s3
s6
sCategory
sFilterDate
sFilterTags
sInquiry
sOrderBy
sOrdernumber
sShowAs
sType
s_category
s_enddate
s_id
s_month
s_startdate
s_type
s_url
sacramental_prep_resources
saison
saktion
saktion1
sale
saleNo
sale_date
sale_lease
sales
salida
sanitize
sauth
saveFacetState
saveLastPath
save_prefs
savelogin
saving
sayfa
scText
sc_andor
sc_area
sc_article_type
sc_d
sc_edate
sc_id
sc_iid
sc_lang
sc_level
sc_order_by
sc_sdate
sc_section_code
sc_serial_code
sc_serial_number
sc_sub_section_code
sc_view_level
sc_word
sc_word2
scat
school_id
schoolid
schools
scl_id
scode
screenName
scroll
sdata
sdate
search-main
searchById
searchDetails
searchForm
searchID
searchInitial
searchJSON
searchKeyword
searchKeywords
searchPage
searchRoots
searchTerms
searchValue
searchWhere
search_api_fulltext
search_api_views_fulltext
search_app
search_author
search_category
search_context
search_data
search_help
search_id
search_in
search_in_description
search_key
search_keyword
search_keywords
search_query
search_scope
search_string
search_tags
search_target
search_term
search_text
search_topic
search_type
search_value
search_word
searchcategory
searchdate
searchfilter
searchfor
searchform
searchkey
searchparam
searchphrase
searchposition
searchradius
searchsort
searchsubmit
searchthreadid
searchtotal
searchword
seasonId
season_id
seasonid
sec_id
sec_no
secc
seccion
secid
second_id
section-url
section1
section2
sectionId
section_id
section_offset
sectok
sector
seeAll
seesaa_related
segmentId
seite
sekce
selArrivalDate
selLanguage
select_arrange
select_tri_recherche
selectedAccountId
selectedCatId
selectedIncentiveId
selectedPageVersions
selectedSubjectId
selectedTab
selected_datestring
selected_facets
selected_filters
selected_section
selectsearch
sell
sellable
seller
semester
send_to
seoUrl
serial_no
serieid
sermon_id
serpPage
serv
service_path
ses_key
sesion
sess_id
sesset
sessiontype
set-aa
setCurrencyId
setName_facet
set_currency
set_filter
set_lang
set_language
set_only
sezione
sezona
sf1
sf_01
sf_culture
sf_paged
sfvrsn
sg_type_pg
sgstd
sh_21100115
sh_21100409
sh_21100431
shape
sharelink
shelfbrowse_itemnumber
shid
shift
shop_domain
shop_view
showAdvanced
showComment
showContactForm
showIncentiveDetails
showLinks
showQuery
showResultsPage
showRows
showSeeTrimsLink
showType
show_all
show_all_trips
show_border
show_comments
show_form
show_func
show_hidden
show_id
show_products
show_reposts
show_user
showagency
showcategory
showd
showid
showoldetails
showposts
showproducts
showtj
sida
signal_type
siteContext
siteDate
siteID
siteMap
siteNodeId
siteRevision
siteStyle
site_domain
site_no
sitecode
siteref
sitesec
sivu
sivu_id
skey
skuId
slaction
slc_lang
slctCity
slctDestination
slctInterest
slctLanguage
slctMetro
slctState
slctSupplier
slider
slideshow
smccont
smd_process_download
smid
smsite
smtemp
sn1
sntz
sobi2Id
sobi2Task
soeg
soid
sold
soldproperty
solution
song_id
sort1
sortDirection
sortOption
sortType
sort_bef_combine
sort_by
sort_dir
sort_direction
sort_field
sort_id
sort_index
sort_method
sort_on
sort_type
sortby_1
sortcol
sortering
sortid
sortkey
sorton
sortoption
sourceID
sourceId
source_id
source_tax
sourceid
soy-free
sp_type
special_version
speciality
specialty
specialtype
species
species_id
sphrase_id
spid
spid0
sponsor
spot_id
sprache
spread_flag
spref
sprefix
spv0
sqlQuery
squash
srchIn
srchtxt
srfile
srid
srng
srsrc
srtby
srule
srwf
ssoSessionId
sso_nonce
sstate
sstr
st1
st_01
st_param
stadium
startDateTime
start_date
start_page
starteronly
startid
startpage
startpos
startrow
starts_with
statCategory
statSeason
statType
statWeek
state_id
statfrom
stationID
status_id
stcname
stem
stesso
stext
stid
stor
storeId
store_id
stored_cclquery
storeid
storyID
storyUrl
story_id
storytopic
stran
strana
stranka
stref
strona
styleID
style_general
style_id
styp
sub1
subGroupId
subSite
subTopicUuid
sub_cate
sub_confirmation
sub_id
sub_num
subcateg
subcatid
subid1
subjectFacet
subjectId
subject_id
subject_page
subjects
submenu
submissionId
submit_action
submit_search
subscribe_to_grandchildren
subseason
subspecies
subsponsor
subsubcat
suchbegriff
suche
suchwort
suid
suite
sujet
sunix
suppFiles
suri
surl
sustr
svccode
sw-type
switch_to_desktop_ui
switched
swoof
sword
symfony
syndication
syst-type
systemDescription
szpd
szpo
szukaj
t_0
t_1
t_2
t_3
t_5
t_5_0
t_5_1
t_5_2
t_5_3
t_5_4
t_6
t_7
t_id
t_language_text
ta16x
taal
tabId
tabRealType
tab_details
tab_files
tab_id
tabindex
tagID
tagName
tag_id
tagsIDs
tagsRenderer-tag
tags__contains
taille
tarContentId
targetFed
target_object_id
target_url
task_id
tasting
taxauthid
taxon
taxon_id
taxon_no
tcb_lightbox
tconfig
tcsid
tdmt_flag
teamID
teamId
team_id
teamname
technique
tema
temas_smultiple
tempid
templ
templateId
tempname
temporada
tentry
term_node_tid_depth
term_title
testimonials
textOnly
texte
theDate
the_session_id
themRub
thema
thematic
themeid
thes1
thes6
this_format
this_language_text
thru-date
tierand
timeline
timetohighlight
tipFriend
tipUrl
tipo-documento
tipus
tisp
tite
titel
titleNo
title_id
title_no
titleid
titolo
titrerub
tlng
tmad
tmcampid
tmclickref
tmpl
tmplaceref
tname
tngpage
toId
toName
toYear
to_id
to_month
to_year
today
toggleadvanced
toggleopen
toolbox
topCatId
topLod
topic1
topic2
topic3
topic4
topic5
topic6
topic7
topic8
topic9
topicId
topicUuid
topic_area
topic_f
topic_facet
topicparent
topmenu
topnav
totalRows_rsLista
touid
tour
tournament_check_number
tpid
tracelog
tracetoken
tracking
tracking_id
trad
trade
tradenumFilter
traffic_id
traffic_type
trans
transactionid
transitionType
translations
transmission
tree-nut-free
treeView
tribe-bar-date
tribe_event_display
tribe_events
tribe_paged
tribe_venue
trim
trip
tsid
tstp
ttle
tube
turdet
turn
tx_contrast
txtExpo
txtItemdesc
txtOrgCode
txtStar1
txtmain
txtmanpart
txtnewman
typeDossier
typeId
type_0
type_1
type_2
type_3
type_4
type_5
type_6
type_7
type__slug
type_id
type_of_unit
typedel
typeofrhyme
uREC_ID
ucat
uenc
uiLanguage
ui_locales
ukey
unapproved
undoafter
unid
unitGroup
unitId
unitName
unitYear
unplayed
unsubscribe_token
updated-max
updated_after
upper_bound
urile
urlBack
urlCache
urlRequestType
urlSlug
url_ver
urlid
urlpath
useAlt
useGlobalVehicleIdMatch
useSamlLogin
uselang
userExpLevel
userMode
user_context
user_query
user_type
userlanguage
usid
ut_ctatext
ut_source
ut_source2
ut_source3
utm_content
utm_expid
utm_hp_ref
utm_id
utm_keyword
utm_name
utm_referrer
utmi_cp
utmi_p
utmi_pc
utmsource
v1
v2
v3
v_master_Length_uFilter
value1
value2
value_lang
var0
var_lang
var_mode
variation_id
veaction
vegan
vehicle
vehicleId
vehicle_id
verl-type
verlag
version_id
vflg
vgdc
via_keyword
video_id
viewType
view_all
view_as
view_by
view_id
view_mode
view_type
viewerCompId
viewfull
viewid
viewkey
viewmode
viewproductid
ville
vipr
virtuemart_category_id
virtuemart_manufacturer_id
virtuemart_product_id
vista
vmcchk
vocab_author
vocab_concepts_eurovoc
vocab_geographical_coverage
vocab_keywords_fi
vocab_theme
votive
voto
vp_filter
vp_page
vpa00dw9efw3232deeee
vpath
vrsta
vrtx
vsig154_0
vsig154_1
vsig154_2
vsig154_3
vsig1_0
vsig1_1
vsig1_2
vsig1_3
vsig1_4
vsig1_5
vsig2_0
vsig3_0
vsig4_0
vuid
w365id
waid
wardId
wbfileid
wbnewsid
wbsi
wbtreeid
wc_view_mode
wccm
wchk
wcm_redirect_id
wcm_redirect_to
web_product_name_filter
webhost
websiteid
webvisitid
week_date_end
week_date_start
week_id
wf_step
when
wheretype
whichpage
wicket-crypt
widgetId
widgetType
wiecej
wish
wlfrom
wlid
wmc-currency
wmode
woinst
workId
worker
wosid
wpDestFile
wpbdp_view
wpdmdl
wpfpaction
wpmp_switcher
wppa-occur
wpv_paged
wpv_view_count
wq_flt
wq_val
wr_id
writer
wsAction
wsid
wtkps
wtok
wtrealm
wuid
wydanie
wysijap
wzbmeta
x-client-SKU
x-client-ver
x4
x8
x9
xargs
xcode
xg_source
xm0
xn_auth
xnav
xnid
xtor
xxmod
yearID
year_facet
yprpnd
yyyy
zdbn
zenid
zipMin
zmena-vzhledu
zobraz
zoek
zona
ztypeAID
showcomment
et_blog
phpsessid
objectpath
pagen_1
viewaction
cbrehoppp2
nomemberorder
comefrom
eventdisplay
oscsid

aspxautodetectcookiesupport
_sid
portfoliocats
ajaxcalendar
sordernumber
sinquiry
hslang
gvbodystyle
element_id
relaystate
samlrequest
urec_id
selectedaccountid
prec_id
cftoken
tb_iframe
webshielddrsessionverify
prev_next
cfid
refpageviewid
olspage
productcateid
responsesopen
page2
skuid
rb.routing.mode
rb.routing.signature
404
rec_id
zipmin
localenddate
localstartdate
introid
fontfamily
backgroundcolor
wap2
bidid
page3
vehicleid
mobileon
promotionid
caltype
wishlist-action
viewobjectpath
reload_once
lastviewaction
opendocument
csrfkey
eventviewmode
loginsocial
showall_1
wpformidentifier
setcurrencyid
pagespeed
hidenotice
eventlistviewmode
hsctatracking
5
grid_list
pagen_2
islogin
g2_itemid
gfdt
submissionid
6
_nodeselectname
_nojs
pbminit
moduleinstanceid
elqtrackid
domainid
flexdataid
renderloc
ccode
7
elementskit_template
advancedsearchform
savefacetstate
permissionviolation
8
